
---------- Begin Simulation Statistics ----------
simSeconds                                   0.003746                       # Number of seconds simulated (Second)
simTicks                                   3746252000                       # Number of ticks simulated (Tick)
finalTick                                579750123500                       # Number of ticks from beginning of simulation (restored from checkpoints and never reset) (Tick)
simFreq                                  1000000000000                       # The number of ticks per simulated second ((Tick/Second))
hostSeconds                                     29.24                       # Real time elapsed on the host (Second)
hostTickRate                                128108531                       # The number of ticks simulated per host second (ticks/s) ((Tick/Second))
hostMemory                                    1215632                       # Number of bytes of host memory used (Byte)
simInsts                                    180747280                       # Number of instructions simulated (Count)
simOps                                      211391814                       # Number of ops (including micro ops) simulated (Count)
hostInstRate                                  6180896                       # Simulator instruction rate (inst/s) ((Count/Second))
hostOpRate                                    7228825                       # Simulator op (including micro ops) rate (op/s) ((Count/Second))
system.bridge.power_state.pwrStateResidencyTicks::UNDEFINED 579750123500                       # Cumulative time (in ticks) in various power states (Tick)
system.clk_domain.clock                          1000                       # Clock period in ticks (Tick)
system.cpu0.numCycles                         7486915                       # Number of cpu cycles simulated (Cycle)
system.cpu0.numWorkItemsStarted                     0                       # Number of work items this cpu started (Count)
system.cpu0.numWorkItemsCompleted                   0                       # Number of work items this cpu completed (Count)
system.cpu0.exec_context.thread_0.numInsts      4386777                       # Number of instructions committed (Count)
system.cpu0.exec_context.thread_0.numOps      5052648                       # Number of ops (including micro ops) committed (Count)
system.cpu0.exec_context.thread_0.numIntAluAccesses      4480355                       # Number of integer alu accesses (Count)
system.cpu0.exec_context.thread_0.numFpAluAccesses            0                       # Number of float alu accesses (Count)
system.cpu0.exec_context.thread_0.numVecAluAccesses           96                       # Number of vector alu accesses (Count)
system.cpu0.exec_context.thread_0.numCallsReturns       250390                       # Number of times a function call or return occured (Count)
system.cpu0.exec_context.thread_0.numCondCtrlInsts       618372                       # Number of instructions that are conditional controls (Count)
system.cpu0.exec_context.thread_0.numIntInsts      4480355                       # Number of integer instructions (Count)
system.cpu0.exec_context.thread_0.numFpInsts            0                       # Number of float instructions (Count)
system.cpu0.exec_context.thread_0.numVecInsts           96                       # Number of vector instructions (Count)
system.cpu0.exec_context.thread_0.numIntRegReads      6305908                       # Number of times the integer registers were read (Count)
system.cpu0.exec_context.thread_0.numIntRegWrites      3482904                       # Number of times the integer registers were written (Count)
system.cpu0.exec_context.thread_0.numFpRegReads            0                       # Number of times the floating registers were read (Count)
system.cpu0.exec_context.thread_0.numFpRegWrites            0                       # Number of times the floating registers were written (Count)
system.cpu0.exec_context.thread_0.numVecRegReads           64                       # Number of times the vector registers were read (Count)
system.cpu0.exec_context.thread_0.numVecRegWrites           32                       # Number of times the vector registers were written (Count)
system.cpu0.exec_context.thread_0.numVecPredRegReads            0                       # Number of times the predicate registers were read (Count)
system.cpu0.exec_context.thread_0.numVecPredRegWrites            0                       # Number of times the predicate registers were written (Count)
system.cpu0.exec_context.thread_0.numCCRegReads     14971587                       # Number of times the CC registers were read (Count)
system.cpu0.exec_context.thread_0.numCCRegWrites      3280041                       # Number of times the CC registers were written (Count)
system.cpu0.exec_context.thread_0.numMiscRegReads       623360                       # Number of times the Misc registers were read (Count)
system.cpu0.exec_context.thread_0.numMiscRegWrites          603                       # Number of times the Misc registers were written (Count)
system.cpu0.exec_context.thread_0.numMemRefs       636353                       # Number of memory refs (Count)
system.cpu0.exec_context.thread_0.numLoadInsts       339186                       # Number of load instructions (Count)
system.cpu0.exec_context.thread_0.numStoreInsts       297167                       # Number of store instructions (Count)
system.cpu0.exec_context.thread_0.numIdleCycles 2438041.763326                       # Number of idle cycles (Cycle)
system.cpu0.exec_context.thread_0.numBusyCycles 5048873.236674                       # Number of busy cycles (Cycle)
system.cpu0.exec_context.thread_0.notIdleFraction     0.674360                       # Percentage of non-idle cycles (Ratio)
system.cpu0.exec_context.thread_0.idleFraction     0.325640                       # Percentage of idle cycles (Ratio)
system.cpu0.exec_context.thread_0.numBranches       825361                       # Number of branches fetched (Count)
system.cpu0.exec_context.thread_0.statExecutedInstType::No_OpClass            1      0.00%      0.00% # Class of executed instruction. (Count)
system.cpu0.exec_context.thread_0.statExecutedInstType::IntAlu      4263141     84.37%     84.37% # Class of executed instruction. (Count)
system.cpu0.exec_context.thread_0.statExecutedInstType::IntMult       153102      3.03%     87.40% # Class of executed instruction. (Count)
system.cpu0.exec_context.thread_0.statExecutedInstType::IntDiv           53      0.00%     87.41% # Class of executed instruction. (Count)
system.cpu0.exec_context.thread_0.statExecutedInstType::FloatAdd            0      0.00%     87.41% # Class of executed instruction. (Count)
system.cpu0.exec_context.thread_0.statExecutedInstType::FloatCmp            0      0.00%     87.41% # Class of executed instruction. (Count)
system.cpu0.exec_context.thread_0.statExecutedInstType::FloatCvt            0      0.00%     87.41% # Class of executed instruction. (Count)
system.cpu0.exec_context.thread_0.statExecutedInstType::FloatMult            0      0.00%     87.41% # Class of executed instruction. (Count)
system.cpu0.exec_context.thread_0.statExecutedInstType::FloatMultAcc            0      0.00%     87.41% # Class of executed instruction. (Count)
system.cpu0.exec_context.thread_0.statExecutedInstType::FloatDiv            0      0.00%     87.41% # Class of executed instruction. (Count)
system.cpu0.exec_context.thread_0.statExecutedInstType::FloatMisc            0      0.00%     87.41% # Class of executed instruction. (Count)
system.cpu0.exec_context.thread_0.statExecutedInstType::FloatSqrt            0      0.00%     87.41% # Class of executed instruction. (Count)
system.cpu0.exec_context.thread_0.statExecutedInstType::SimdAdd            0      0.00%     87.41% # Class of executed instruction. (Count)
system.cpu0.exec_context.thread_0.statExecutedInstType::SimdAddAcc            0      0.00%     87.41% # Class of executed instruction. (Count)
system.cpu0.exec_context.thread_0.statExecutedInstType::SimdAlu            0      0.00%     87.41% # Class of executed instruction. (Count)
system.cpu0.exec_context.thread_0.statExecutedInstType::SimdCmp            0      0.00%     87.41% # Class of executed instruction. (Count)
system.cpu0.exec_context.thread_0.statExecutedInstType::SimdCvt            0      0.00%     87.41% # Class of executed instruction. (Count)
system.cpu0.exec_context.thread_0.statExecutedInstType::SimdMisc            0      0.00%     87.41% # Class of executed instruction. (Count)
system.cpu0.exec_context.thread_0.statExecutedInstType::SimdMult            0      0.00%     87.41% # Class of executed instruction. (Count)
system.cpu0.exec_context.thread_0.statExecutedInstType::SimdMultAcc            0      0.00%     87.41% # Class of executed instruction. (Count)
system.cpu0.exec_context.thread_0.statExecutedInstType::SimdShift            0      0.00%     87.41% # Class of executed instruction. (Count)
system.cpu0.exec_context.thread_0.statExecutedInstType::SimdShiftAcc            0      0.00%     87.41% # Class of executed instruction. (Count)
system.cpu0.exec_context.thread_0.statExecutedInstType::SimdDiv            0      0.00%     87.41% # Class of executed instruction. (Count)
system.cpu0.exec_context.thread_0.statExecutedInstType::SimdSqrt            0      0.00%     87.41% # Class of executed instruction. (Count)
system.cpu0.exec_context.thread_0.statExecutedInstType::SimdFloatAdd            0      0.00%     87.41% # Class of executed instruction. (Count)
system.cpu0.exec_context.thread_0.statExecutedInstType::SimdFloatAlu            0      0.00%     87.41% # Class of executed instruction. (Count)
system.cpu0.exec_context.thread_0.statExecutedInstType::SimdFloatCmp            0      0.00%     87.41% # Class of executed instruction. (Count)
system.cpu0.exec_context.thread_0.statExecutedInstType::SimdFloatCvt            0      0.00%     87.41% # Class of executed instruction. (Count)
system.cpu0.exec_context.thread_0.statExecutedInstType::SimdFloatDiv            0      0.00%     87.41% # Class of executed instruction. (Count)
system.cpu0.exec_context.thread_0.statExecutedInstType::SimdFloatMisc            0      0.00%     87.41% # Class of executed instruction. (Count)
system.cpu0.exec_context.thread_0.statExecutedInstType::SimdFloatMult            0      0.00%     87.41% # Class of executed instruction. (Count)
system.cpu0.exec_context.thread_0.statExecutedInstType::SimdFloatMultAcc            0      0.00%     87.41% # Class of executed instruction. (Count)
system.cpu0.exec_context.thread_0.statExecutedInstType::SimdFloatSqrt            0      0.00%     87.41% # Class of executed instruction. (Count)
system.cpu0.exec_context.thread_0.statExecutedInstType::SimdReduceAdd            0      0.00%     87.41% # Class of executed instruction. (Count)
system.cpu0.exec_context.thread_0.statExecutedInstType::SimdReduceAlu            0      0.00%     87.41% # Class of executed instruction. (Count)
system.cpu0.exec_context.thread_0.statExecutedInstType::SimdReduceCmp            0      0.00%     87.41% # Class of executed instruction. (Count)
system.cpu0.exec_context.thread_0.statExecutedInstType::SimdFloatReduceAdd            0      0.00%     87.41% # Class of executed instruction. (Count)
system.cpu0.exec_context.thread_0.statExecutedInstType::SimdFloatReduceCmp            0      0.00%     87.41% # Class of executed instruction. (Count)
system.cpu0.exec_context.thread_0.statExecutedInstType::SimdAes            0      0.00%     87.41% # Class of executed instruction. (Count)
system.cpu0.exec_context.thread_0.statExecutedInstType::SimdAesMix            0      0.00%     87.41% # Class of executed instruction. (Count)
system.cpu0.exec_context.thread_0.statExecutedInstType::SimdSha1Hash            0      0.00%     87.41% # Class of executed instruction. (Count)
system.cpu0.exec_context.thread_0.statExecutedInstType::SimdSha1Hash2            0      0.00%     87.41% # Class of executed instruction. (Count)
system.cpu0.exec_context.thread_0.statExecutedInstType::SimdSha256Hash            0      0.00%     87.41% # Class of executed instruction. (Count)
system.cpu0.exec_context.thread_0.statExecutedInstType::SimdSha256Hash2            0      0.00%     87.41% # Class of executed instruction. (Count)
system.cpu0.exec_context.thread_0.statExecutedInstType::SimdShaSigma2            0      0.00%     87.41% # Class of executed instruction. (Count)
system.cpu0.exec_context.thread_0.statExecutedInstType::SimdShaSigma3            0      0.00%     87.41% # Class of executed instruction. (Count)
system.cpu0.exec_context.thread_0.statExecutedInstType::SimdPredAlu            0      0.00%     87.41% # Class of executed instruction. (Count)
system.cpu0.exec_context.thread_0.statExecutedInstType::MemRead       339186      6.71%     94.12% # Class of executed instruction. (Count)
system.cpu0.exec_context.thread_0.statExecutedInstType::MemWrite       297167      5.88%    100.00% # Class of executed instruction. (Count)
system.cpu0.exec_context.thread_0.statExecutedInstType::FloatMemRead            0      0.00%    100.00% # Class of executed instruction. (Count)
system.cpu0.exec_context.thread_0.statExecutedInstType::FloatMemWrite            0      0.00%    100.00% # Class of executed instruction. (Count)
system.cpu0.exec_context.thread_0.statExecutedInstType::IprAccess            0      0.00%    100.00% # Class of executed instruction. (Count)
system.cpu0.exec_context.thread_0.statExecutedInstType::InstPrefetch            0      0.00%    100.00% # Class of executed instruction. (Count)
system.cpu0.exec_context.thread_0.statExecutedInstType::total      5052650                       # Class of executed instruction. (Count)
system.cpu0.mmu.alignFaults                         0                       # Number of MMU faults due to alignment restrictions (Count)
system.cpu0.mmu.prefetchFaults                      6                       # Number of MMU faults due to prefetch (Count)
system.cpu0.mmu.domainFaults                        0                       # Number of MMU faults due to domain restrictions (Count)
system.cpu0.mmu.permsFaults                         0                       # Number of MMU faults due to permissions restrictions (Count)
system.cpu0.mmu.dtb.readHits                   258493                       # Read hits (Count)
system.cpu0.mmu.dtb.readMisses                     84                       # Read misses (Count)
system.cpu0.mmu.dtb.writeHits                  297155                       # Write hits (Count)
system.cpu0.mmu.dtb.writeMisses                     9                       # Write misses (Count)
system.cpu0.mmu.dtb.inserts                        87                       # Number of times an entry is inserted into the TLB (Count)
system.cpu0.mmu.dtb.flushTlb                        0                       # Number of times complete TLB was flushed (Count)
system.cpu0.mmu.dtb.flushTlbMva                     0                       # Number of times TLB was flushed by MVA (Count)
system.cpu0.mmu.dtb.flushTlbMvaAsid               126                       # Number of times TLB was flushed by MVA & ASID (Count)
system.cpu0.mmu.dtb.flushTlbAsid                    6                       # Number of times TLB was flushed by ASID (Count)
system.cpu0.mmu.dtb.flushedEntries                  0                       # Number of entries that have been flushed from TLB (Count)
system.cpu0.mmu.dtb.readAccesses               258577                       # Read accesses (Count)
system.cpu0.mmu.dtb.writeAccesses              297164                       # Write accesses (Count)
system.cpu0.mmu.dtb.hits                       555648                       # Total TLB (inst and data) hits (Count)
system.cpu0.mmu.dtb.misses                         93                       # Total TLB (inst and data) misses (Count)
system.cpu0.mmu.dtb.accesses                   555741                       # Total TLB (inst and data) accesses (Count)
system.cpu0.mmu.dtb_walker.walks                   78                       # Table walker walks requested (Count)
system.cpu0.mmu.dtb_walker.walksLongDescriptor           78                       # Table walker walks initiated with long descriptors (Count)
system.cpu0.mmu.dtb_walker.walkWaitTime::samples           78                       # Table walker wait (enqueue to first request) latency (Tick)
system.cpu0.mmu.dtb_walker.walkWaitTime::0           78    100.00%    100.00% # Table walker wait (enqueue to first request) latency (Tick)
system.cpu0.mmu.dtb_walker.walkWaitTime::total           78                       # Table walker wait (enqueue to first request) latency (Tick)
system.cpu0.mmu.dtb_walker.pageSizes::4KiB           68     87.18%     87.18% # Table walker page sizes translated (Count)
system.cpu0.mmu.dtb_walker.pageSizes::2MiB           10     12.82%    100.00% # Table walker page sizes translated (Count)
system.cpu0.mmu.dtb_walker.pageSizes::total           78                       # Table walker page sizes translated (Count)
system.cpu0.mmu.dtb_walker.requestOrigin_Requested::Data           78                       # Table walker requests started/completed, data/inst (Count)
system.cpu0.mmu.dtb_walker.requestOrigin_Requested::Inst            0                       # Table walker requests started/completed, data/inst (Count)
system.cpu0.mmu.dtb_walker.requestOrigin_Requested::total           78                       # Table walker requests started/completed, data/inst (Count)
system.cpu0.mmu.dtb_walker.requestOrigin_Completed::Data           78                       # Table walker requests started/completed, data/inst (Count)
system.cpu0.mmu.dtb_walker.requestOrigin_Completed::Inst            0                       # Table walker requests started/completed, data/inst (Count)
system.cpu0.mmu.dtb_walker.requestOrigin_Completed::total           78                       # Table walker requests started/completed, data/inst (Count)
system.cpu0.mmu.dtb_walker.requestOrigin::total          156                       # Table walker requests started/completed, data/inst (Count)
system.cpu0.mmu.dtb_walker.power_state.pwrStateResidencyTicks::UNDEFINED 579750123500                       # Cumulative time (in ticks) in various power states (Tick)
system.cpu0.mmu.itb.instHits                  4386625                       # Inst hits (Count)
system.cpu0.mmu.itb.instMisses                    154                       # Inst misses (Count)
system.cpu0.mmu.itb.inserts                       154                       # Number of times an entry is inserted into the TLB (Count)
system.cpu0.mmu.itb.flushTlb                        0                       # Number of times complete TLB was flushed (Count)
system.cpu0.mmu.itb.flushTlbMva                     0                       # Number of times TLB was flushed by MVA (Count)
system.cpu0.mmu.itb.flushTlbMvaAsid               126                       # Number of times TLB was flushed by MVA & ASID (Count)
system.cpu0.mmu.itb.flushTlbAsid                    6                       # Number of times TLB was flushed by ASID (Count)
system.cpu0.mmu.itb.flushedEntries                  0                       # Number of entries that have been flushed from TLB (Count)
system.cpu0.mmu.itb.instAccesses              4386779                       # Inst accesses (Count)
system.cpu0.mmu.itb.hits                      4386625                       # Total TLB (inst and data) hits (Count)
system.cpu0.mmu.itb.misses                        154                       # Total TLB (inst and data) misses (Count)
system.cpu0.mmu.itb.accesses                  4386779                       # Total TLB (inst and data) accesses (Count)
system.cpu0.mmu.itb_walker.walks                  111                       # Table walker walks requested (Count)
system.cpu0.mmu.itb_walker.walksLongDescriptor          111                       # Table walker walks initiated with long descriptors (Count)
system.cpu0.mmu.itb_walker.walkWaitTime::samples          111                       # Table walker wait (enqueue to first request) latency (Tick)
system.cpu0.mmu.itb_walker.walkWaitTime::0          111    100.00%    100.00% # Table walker wait (enqueue to first request) latency (Tick)
system.cpu0.mmu.itb_walker.walkWaitTime::total          111                       # Table walker wait (enqueue to first request) latency (Tick)
system.cpu0.mmu.itb_walker.pageSizes::4KiB          109     98.20%     98.20% # Table walker page sizes translated (Count)
system.cpu0.mmu.itb_walker.pageSizes::2MiB            2      1.80%    100.00% # Table walker page sizes translated (Count)
system.cpu0.mmu.itb_walker.pageSizes::total          111                       # Table walker page sizes translated (Count)
system.cpu0.mmu.itb_walker.requestOrigin_Requested::Data            0                       # Table walker requests started/completed, data/inst (Count)
system.cpu0.mmu.itb_walker.requestOrigin_Requested::Inst          111                       # Table walker requests started/completed, data/inst (Count)
system.cpu0.mmu.itb_walker.requestOrigin_Requested::total          111                       # Table walker requests started/completed, data/inst (Count)
system.cpu0.mmu.itb_walker.requestOrigin_Completed::Data            0                       # Table walker requests started/completed, data/inst (Count)
system.cpu0.mmu.itb_walker.requestOrigin_Completed::Inst          111                       # Table walker requests started/completed, data/inst (Count)
system.cpu0.mmu.itb_walker.requestOrigin_Completed::total          111                       # Table walker requests started/completed, data/inst (Count)
system.cpu0.mmu.itb_walker.requestOrigin::total          222                       # Table walker requests started/completed, data/inst (Count)
system.cpu0.mmu.itb_walker.power_state.pwrStateResidencyTicks::UNDEFINED 579750123500                       # Cumulative time (in ticks) in various power states (Tick)
system.cpu0.mmu.l2_shared.partialHits             173                       # partial translation hits (Count)
system.cpu0.mmu.l2_shared.instHits                149                       # Inst hits (Count)
system.cpu0.mmu.l2_shared.instMisses                5                       # Inst misses (Count)
system.cpu0.mmu.l2_shared.readHits                 69                       # Read hits (Count)
system.cpu0.mmu.l2_shared.readMisses               15                       # Read misses (Count)
system.cpu0.mmu.l2_shared.writeHits                 7                       # Write hits (Count)
system.cpu0.mmu.l2_shared.writeMisses               2                       # Write misses (Count)
system.cpu0.mmu.l2_shared.inserts                 196                       # Number of times an entry is inserted into the TLB (Count)
system.cpu0.mmu.l2_shared.flushTlb                  0                       # Number of times complete TLB was flushed (Count)
system.cpu0.mmu.l2_shared.flushTlbMva               0                       # Number of times TLB was flushed by MVA (Count)
system.cpu0.mmu.l2_shared.flushTlbMvaAsid          126                       # Number of times TLB was flushed by MVA & ASID (Count)
system.cpu0.mmu.l2_shared.flushTlbAsid              6                       # Number of times TLB was flushed by ASID (Count)
system.cpu0.mmu.l2_shared.flushedEntries            2                       # Number of entries that have been flushed from TLB (Count)
system.cpu0.mmu.l2_shared.readAccesses             84                       # Read accesses (Count)
system.cpu0.mmu.l2_shared.writeAccesses             9                       # Write accesses (Count)
system.cpu0.mmu.l2_shared.instAccesses            154                       # Inst accesses (Count)
system.cpu0.mmu.l2_shared.hits                    225                       # Total TLB (inst and data) hits (Count)
system.cpu0.mmu.l2_shared.misses                   22                       # Total TLB (inst and data) misses (Count)
system.cpu0.mmu.l2_shared.accesses                247                       # Total TLB (inst and data) accesses (Count)
system.cpu0.mmu.stage2_dtb.readHits                 0                       # Read hits (Count)
system.cpu0.mmu.stage2_dtb.readMisses               0                       # Read misses (Count)
system.cpu0.mmu.stage2_dtb.writeHits                0                       # Write hits (Count)
system.cpu0.mmu.stage2_dtb.writeMisses              0                       # Write misses (Count)
system.cpu0.mmu.stage2_dtb.inserts                  0                       # Number of times an entry is inserted into the TLB (Count)
system.cpu0.mmu.stage2_dtb.flushTlb                 0                       # Number of times complete TLB was flushed (Count)
system.cpu0.mmu.stage2_dtb.flushTlbMva              0                       # Number of times TLB was flushed by MVA (Count)
system.cpu0.mmu.stage2_dtb.flushTlbMvaAsid            0                       # Number of times TLB was flushed by MVA & ASID (Count)
system.cpu0.mmu.stage2_dtb.flushTlbAsid             0                       # Number of times TLB was flushed by ASID (Count)
system.cpu0.mmu.stage2_dtb.flushedEntries            0                       # Number of entries that have been flushed from TLB (Count)
system.cpu0.mmu.stage2_dtb.readAccesses             0                       # Read accesses (Count)
system.cpu0.mmu.stage2_dtb.writeAccesses            0                       # Write accesses (Count)
system.cpu0.mmu.stage2_dtb.hits                     0                       # Total TLB (inst and data) hits (Count)
system.cpu0.mmu.stage2_dtb.misses                   0                       # Total TLB (inst and data) misses (Count)
system.cpu0.mmu.stage2_dtb.accesses                 0                       # Total TLB (inst and data) accesses (Count)
system.cpu0.mmu.stage2_dtb_walker.walks             0                       # Table walker walks requested (Count)
system.cpu0.mmu.stage2_dtb_walker.requestOrigin_Requested::Data            0                       # Table walker requests started/completed, data/inst (Count)
system.cpu0.mmu.stage2_dtb_walker.requestOrigin_Requested::Inst            0                       # Table walker requests started/completed, data/inst (Count)
system.cpu0.mmu.stage2_dtb_walker.requestOrigin_Requested::total            0                       # Table walker requests started/completed, data/inst (Count)
system.cpu0.mmu.stage2_dtb_walker.requestOrigin_Completed::Data            0                       # Table walker requests started/completed, data/inst (Count)
system.cpu0.mmu.stage2_dtb_walker.requestOrigin_Completed::Inst            0                       # Table walker requests started/completed, data/inst (Count)
system.cpu0.mmu.stage2_dtb_walker.requestOrigin_Completed::total            0                       # Table walker requests started/completed, data/inst (Count)
system.cpu0.mmu.stage2_dtb_walker.requestOrigin::total            0                       # Table walker requests started/completed, data/inst (Count)
system.cpu0.mmu.stage2_dtb_walker.power_state.pwrStateResidencyTicks::UNDEFINED 579750123500                       # Cumulative time (in ticks) in various power states (Tick)
system.cpu0.mmu.stage2_itb.instHits                 0                       # Inst hits (Count)
system.cpu0.mmu.stage2_itb.instMisses               0                       # Inst misses (Count)
system.cpu0.mmu.stage2_itb.inserts                  0                       # Number of times an entry is inserted into the TLB (Count)
system.cpu0.mmu.stage2_itb.flushTlb                 0                       # Number of times complete TLB was flushed (Count)
system.cpu0.mmu.stage2_itb.flushTlbMva              0                       # Number of times TLB was flushed by MVA (Count)
system.cpu0.mmu.stage2_itb.flushTlbMvaAsid            0                       # Number of times TLB was flushed by MVA & ASID (Count)
system.cpu0.mmu.stage2_itb.flushTlbAsid             0                       # Number of times TLB was flushed by ASID (Count)
system.cpu0.mmu.stage2_itb.flushedEntries            0                       # Number of entries that have been flushed from TLB (Count)
system.cpu0.mmu.stage2_itb.instAccesses             0                       # Inst accesses (Count)
system.cpu0.mmu.stage2_itb.hits                     0                       # Total TLB (inst and data) hits (Count)
system.cpu0.mmu.stage2_itb.misses                   0                       # Total TLB (inst and data) misses (Count)
system.cpu0.mmu.stage2_itb.accesses                 0                       # Total TLB (inst and data) accesses (Count)
system.cpu0.mmu.stage2_itb_walker.walks             0                       # Table walker walks requested (Count)
system.cpu0.mmu.stage2_itb_walker.requestOrigin_Requested::Data            0                       # Table walker requests started/completed, data/inst (Count)
system.cpu0.mmu.stage2_itb_walker.requestOrigin_Requested::Inst            0                       # Table walker requests started/completed, data/inst (Count)
system.cpu0.mmu.stage2_itb_walker.requestOrigin_Requested::total            0                       # Table walker requests started/completed, data/inst (Count)
system.cpu0.mmu.stage2_itb_walker.requestOrigin_Completed::Data            0                       # Table walker requests started/completed, data/inst (Count)
system.cpu0.mmu.stage2_itb_walker.requestOrigin_Completed::Inst            0                       # Table walker requests started/completed, data/inst (Count)
system.cpu0.mmu.stage2_itb_walker.requestOrigin_Completed::total            0                       # Table walker requests started/completed, data/inst (Count)
system.cpu0.mmu.stage2_itb_walker.requestOrigin::total            0                       # Table walker requests started/completed, data/inst (Count)
system.cpu0.mmu.stage2_itb_walker.power_state.pwrStateResidencyTicks::UNDEFINED 579750123500                       # Cumulative time (in ticks) in various power states (Tick)
system.cpu0.power_state.numTransitions             34                       # Number of power state transitions (Count)
system.cpu0.power_state.ticksClkGated::samples           18                       # Distribution of time spent in the clock gated state (Tick)
system.cpu0.power_state.ticksClkGated::mean 72330854.611111                       # Distribution of time spent in the clock gated state (Tick)
system.cpu0.power_state.ticksClkGated::stdev 51461797.257122                       # Distribution of time spent in the clock gated state (Tick)
system.cpu0.power_state.ticksClkGated::1000-5e+10           18    100.00%    100.00% # Distribution of time spent in the clock gated state (Tick)
system.cpu0.power_state.ticksClkGated::min_value      1813000                       # Distribution of time spent in the clock gated state (Tick)
system.cpu0.power_state.ticksClkGated::max_value    162416068                       # Distribution of time spent in the clock gated state (Tick)
system.cpu0.power_state.ticksClkGated::total           18                       # Distribution of time spent in the clock gated state (Tick)
system.cpu0.power_state.pwrStateResidencyTicks::ON   2526321117                       # Cumulative time (in ticks) in various power states (Tick)
system.cpu0.power_state.pwrStateResidencyTicks::CLK_GATED   1301955383                       # Cumulative time (in ticks) in various power states (Tick)
system.cpu0.thread_0.numInsts                       0                       # Number of Instructions committed (Count)
system.cpu0.thread_0.numOps                         0                       # Number of Ops committed (Count)
system.cpu0.thread_0.numMemRefs                     0                       # Number of Memory References (Count)
system.cpu1.numCycles                         7486909                       # Number of cpu cycles simulated (Cycle)
system.cpu1.numWorkItemsStarted                     0                       # Number of work items this cpu started (Count)
system.cpu1.numWorkItemsCompleted                   0                       # Number of work items this cpu completed (Count)
system.cpu1.exec_context.thread_0.numInsts      3936585                       # Number of instructions committed (Count)
system.cpu1.exec_context.thread_0.numOps      4531056                       # Number of ops (including micro ops) committed (Count)
system.cpu1.exec_context.thread_0.numIntAluAccesses      4016177                       # Number of integer alu accesses (Count)
system.cpu1.exec_context.thread_0.numFpAluAccesses            0                       # Number of float alu accesses (Count)
system.cpu1.exec_context.thread_0.numVecAluAccesses           96                       # Number of vector alu accesses (Count)
system.cpu1.exec_context.thread_0.numCallsReturns       223362                       # Number of times a function call or return occured (Count)
system.cpu1.exec_context.thread_0.numCondCtrlInsts       555404                       # Number of instructions that are conditional controls (Count)
system.cpu1.exec_context.thread_0.numIntInsts      4016177                       # Number of integer instructions (Count)
system.cpu1.exec_context.thread_0.numFpInsts            0                       # Number of float instructions (Count)
system.cpu1.exec_context.thread_0.numVecInsts           96                       # Number of vector instructions (Count)
system.cpu1.exec_context.thread_0.numIntRegReads      5660135                       # Number of times the integer registers were read (Count)
system.cpu1.exec_context.thread_0.numIntRegWrites      3122938                       # Number of times the integer registers were written (Count)
system.cpu1.exec_context.thread_0.numFpRegReads            0                       # Number of times the floating registers were read (Count)
system.cpu1.exec_context.thread_0.numFpRegWrites            0                       # Number of times the floating registers were written (Count)
system.cpu1.exec_context.thread_0.numVecRegReads           64                       # Number of times the vector registers were read (Count)
system.cpu1.exec_context.thread_0.numVecRegWrites           32                       # Number of times the vector registers were written (Count)
system.cpu1.exec_context.thread_0.numVecPredRegReads            0                       # Number of times the predicate registers were read (Count)
system.cpu1.exec_context.thread_0.numVecPredRegWrites            0                       # Number of times the predicate registers were written (Count)
system.cpu1.exec_context.thread_0.numCCRegReads     13486359                       # Number of times the CC registers were read (Count)
system.cpu1.exec_context.thread_0.numCCRegWrites      2955282                       # Number of times the CC registers were written (Count)
system.cpu1.exec_context.thread_0.numMiscRegReads       558644                       # Number of times the Misc registers were read (Count)
system.cpu1.exec_context.thread_0.numMiscRegWrites          391                       # Number of times the Misc registers were written (Count)
system.cpu1.exec_context.thread_0.numMemRefs       565417                       # Number of memory refs (Count)
system.cpu1.exec_context.thread_0.numLoadInsts       300974                       # Number of load instructions (Count)
system.cpu1.exec_context.thread_0.numStoreInsts       264443                       # Number of store instructions (Count)
system.cpu1.exec_context.thread_0.numIdleCycles 2959239.300675                       # Number of idle cycles (Cycle)
system.cpu1.exec_context.thread_0.numBusyCycles 4527669.699325                       # Number of busy cycles (Cycle)
system.cpu1.exec_context.thread_0.notIdleFraction     0.604745                       # Percentage of non-idle cycles (Ratio)
system.cpu1.exec_context.thread_0.idleFraction     0.395255                       # Percentage of idle cycles (Ratio)
system.cpu1.exec_context.thread_0.numBranches       739796                       # Number of branches fetched (Count)
system.cpu1.exec_context.thread_0.statExecutedInstType::No_OpClass            1      0.00%      0.00% # Class of executed instruction. (Count)
system.cpu1.exec_context.thread_0.statExecutedInstType::IntAlu      3827232     84.47%     84.47% # Class of executed instruction. (Count)
system.cpu1.exec_context.thread_0.statExecutedInstType::IntMult       138370      3.05%     87.52% # Class of executed instruction. (Count)
system.cpu1.exec_context.thread_0.statExecutedInstType::IntDiv           39      0.00%     87.52% # Class of executed instruction. (Count)
system.cpu1.exec_context.thread_0.statExecutedInstType::FloatAdd            0      0.00%     87.52% # Class of executed instruction. (Count)
system.cpu1.exec_context.thread_0.statExecutedInstType::FloatCmp            0      0.00%     87.52% # Class of executed instruction. (Count)
system.cpu1.exec_context.thread_0.statExecutedInstType::FloatCvt            0      0.00%     87.52% # Class of executed instruction. (Count)
system.cpu1.exec_context.thread_0.statExecutedInstType::FloatMult            0      0.00%     87.52% # Class of executed instruction. (Count)
system.cpu1.exec_context.thread_0.statExecutedInstType::FloatMultAcc            0      0.00%     87.52% # Class of executed instruction. (Count)
system.cpu1.exec_context.thread_0.statExecutedInstType::FloatDiv            0      0.00%     87.52% # Class of executed instruction. (Count)
system.cpu1.exec_context.thread_0.statExecutedInstType::FloatMisc            0      0.00%     87.52% # Class of executed instruction. (Count)
system.cpu1.exec_context.thread_0.statExecutedInstType::FloatSqrt            0      0.00%     87.52% # Class of executed instruction. (Count)
system.cpu1.exec_context.thread_0.statExecutedInstType::SimdAdd            0      0.00%     87.52% # Class of executed instruction. (Count)
system.cpu1.exec_context.thread_0.statExecutedInstType::SimdAddAcc            0      0.00%     87.52% # Class of executed instruction. (Count)
system.cpu1.exec_context.thread_0.statExecutedInstType::SimdAlu            0      0.00%     87.52% # Class of executed instruction. (Count)
system.cpu1.exec_context.thread_0.statExecutedInstType::SimdCmp            0      0.00%     87.52% # Class of executed instruction. (Count)
system.cpu1.exec_context.thread_0.statExecutedInstType::SimdCvt            0      0.00%     87.52% # Class of executed instruction. (Count)
system.cpu1.exec_context.thread_0.statExecutedInstType::SimdMisc            0      0.00%     87.52% # Class of executed instruction. (Count)
system.cpu1.exec_context.thread_0.statExecutedInstType::SimdMult            0      0.00%     87.52% # Class of executed instruction. (Count)
system.cpu1.exec_context.thread_0.statExecutedInstType::SimdMultAcc            0      0.00%     87.52% # Class of executed instruction. (Count)
system.cpu1.exec_context.thread_0.statExecutedInstType::SimdShift            0      0.00%     87.52% # Class of executed instruction. (Count)
system.cpu1.exec_context.thread_0.statExecutedInstType::SimdShiftAcc            0      0.00%     87.52% # Class of executed instruction. (Count)
system.cpu1.exec_context.thread_0.statExecutedInstType::SimdDiv            0      0.00%     87.52% # Class of executed instruction. (Count)
system.cpu1.exec_context.thread_0.statExecutedInstType::SimdSqrt            0      0.00%     87.52% # Class of executed instruction. (Count)
system.cpu1.exec_context.thread_0.statExecutedInstType::SimdFloatAdd            0      0.00%     87.52% # Class of executed instruction. (Count)
system.cpu1.exec_context.thread_0.statExecutedInstType::SimdFloatAlu            0      0.00%     87.52% # Class of executed instruction. (Count)
system.cpu1.exec_context.thread_0.statExecutedInstType::SimdFloatCmp            0      0.00%     87.52% # Class of executed instruction. (Count)
system.cpu1.exec_context.thread_0.statExecutedInstType::SimdFloatCvt            0      0.00%     87.52% # Class of executed instruction. (Count)
system.cpu1.exec_context.thread_0.statExecutedInstType::SimdFloatDiv            0      0.00%     87.52% # Class of executed instruction. (Count)
system.cpu1.exec_context.thread_0.statExecutedInstType::SimdFloatMisc            0      0.00%     87.52% # Class of executed instruction. (Count)
system.cpu1.exec_context.thread_0.statExecutedInstType::SimdFloatMult            0      0.00%     87.52% # Class of executed instruction. (Count)
system.cpu1.exec_context.thread_0.statExecutedInstType::SimdFloatMultAcc            0      0.00%     87.52% # Class of executed instruction. (Count)
system.cpu1.exec_context.thread_0.statExecutedInstType::SimdFloatSqrt            0      0.00%     87.52% # Class of executed instruction. (Count)
system.cpu1.exec_context.thread_0.statExecutedInstType::SimdReduceAdd            0      0.00%     87.52% # Class of executed instruction. (Count)
system.cpu1.exec_context.thread_0.statExecutedInstType::SimdReduceAlu            0      0.00%     87.52% # Class of executed instruction. (Count)
system.cpu1.exec_context.thread_0.statExecutedInstType::SimdReduceCmp            0      0.00%     87.52% # Class of executed instruction. (Count)
system.cpu1.exec_context.thread_0.statExecutedInstType::SimdFloatReduceAdd            0      0.00%     87.52% # Class of executed instruction. (Count)
system.cpu1.exec_context.thread_0.statExecutedInstType::SimdFloatReduceCmp            0      0.00%     87.52% # Class of executed instruction. (Count)
system.cpu1.exec_context.thread_0.statExecutedInstType::SimdAes            0      0.00%     87.52% # Class of executed instruction. (Count)
system.cpu1.exec_context.thread_0.statExecutedInstType::SimdAesMix            0      0.00%     87.52% # Class of executed instruction. (Count)
system.cpu1.exec_context.thread_0.statExecutedInstType::SimdSha1Hash            0      0.00%     87.52% # Class of executed instruction. (Count)
system.cpu1.exec_context.thread_0.statExecutedInstType::SimdSha1Hash2            0      0.00%     87.52% # Class of executed instruction. (Count)
system.cpu1.exec_context.thread_0.statExecutedInstType::SimdSha256Hash            0      0.00%     87.52% # Class of executed instruction. (Count)
system.cpu1.exec_context.thread_0.statExecutedInstType::SimdSha256Hash2            0      0.00%     87.52% # Class of executed instruction. (Count)
system.cpu1.exec_context.thread_0.statExecutedInstType::SimdShaSigma2            0      0.00%     87.52% # Class of executed instruction. (Count)
system.cpu1.exec_context.thread_0.statExecutedInstType::SimdShaSigma3            0      0.00%     87.52% # Class of executed instruction. (Count)
system.cpu1.exec_context.thread_0.statExecutedInstType::SimdPredAlu            0      0.00%     87.52% # Class of executed instruction. (Count)
system.cpu1.exec_context.thread_0.statExecutedInstType::MemRead       300974      6.64%     94.16% # Class of executed instruction. (Count)
system.cpu1.exec_context.thread_0.statExecutedInstType::MemWrite       264443      5.84%    100.00% # Class of executed instruction. (Count)
system.cpu1.exec_context.thread_0.statExecutedInstType::FloatMemRead            0      0.00%    100.00% # Class of executed instruction. (Count)
system.cpu1.exec_context.thread_0.statExecutedInstType::FloatMemWrite            0      0.00%    100.00% # Class of executed instruction. (Count)
system.cpu1.exec_context.thread_0.statExecutedInstType::IprAccess            0      0.00%    100.00% # Class of executed instruction. (Count)
system.cpu1.exec_context.thread_0.statExecutedInstType::InstPrefetch            0      0.00%    100.00% # Class of executed instruction. (Count)
system.cpu1.exec_context.thread_0.statExecutedInstType::total      4531059                       # Class of executed instruction. (Count)
system.cpu1.mmu.alignFaults                         0                       # Number of MMU faults due to alignment restrictions (Count)
system.cpu1.mmu.prefetchFaults                      4                       # Number of MMU faults due to prefetch (Count)
system.cpu1.mmu.domainFaults                        0                       # Number of MMU faults due to domain restrictions (Count)
system.cpu1.mmu.permsFaults                         0                       # Number of MMU faults due to permissions restrictions (Count)
system.cpu1.mmu.dtb.readHits                   228330                       # Read hits (Count)
system.cpu1.mmu.dtb.readMisses                     75                       # Read misses (Count)
system.cpu1.mmu.dtb.writeHits                  264428                       # Write hits (Count)
system.cpu1.mmu.dtb.writeMisses                    12                       # Write misses (Count)
system.cpu1.mmu.dtb.inserts                        82                       # Number of times an entry is inserted into the TLB (Count)
system.cpu1.mmu.dtb.flushTlb                        0                       # Number of times complete TLB was flushed (Count)
system.cpu1.mmu.dtb.flushTlbMva                     0                       # Number of times TLB was flushed by MVA (Count)
system.cpu1.mmu.dtb.flushTlbMvaAsid               126                       # Number of times TLB was flushed by MVA & ASID (Count)
system.cpu1.mmu.dtb.flushTlbAsid                    6                       # Number of times TLB was flushed by ASID (Count)
system.cpu1.mmu.dtb.flushedEntries                  0                       # Number of entries that have been flushed from TLB (Count)
system.cpu1.mmu.dtb.readAccesses               228405                       # Read accesses (Count)
system.cpu1.mmu.dtb.writeAccesses              264440                       # Write accesses (Count)
system.cpu1.mmu.dtb.hits                       492758                       # Total TLB (inst and data) hits (Count)
system.cpu1.mmu.dtb.misses                         87                       # Total TLB (inst and data) misses (Count)
system.cpu1.mmu.dtb.accesses                   492845                       # Total TLB (inst and data) accesses (Count)
system.cpu1.mmu.dtb_walker.walks                   78                       # Table walker walks requested (Count)
system.cpu1.mmu.dtb_walker.walksLongDescriptor           78                       # Table walker walks initiated with long descriptors (Count)
system.cpu1.mmu.dtb_walker.walkWaitTime::samples           78                       # Table walker wait (enqueue to first request) latency (Tick)
system.cpu1.mmu.dtb_walker.walkWaitTime::0           78    100.00%    100.00% # Table walker wait (enqueue to first request) latency (Tick)
system.cpu1.mmu.dtb_walker.walkWaitTime::total           78                       # Table walker wait (enqueue to first request) latency (Tick)
system.cpu1.mmu.dtb_walker.pageSizes::4KiB           65     84.42%     84.42% # Table walker page sizes translated (Count)
system.cpu1.mmu.dtb_walker.pageSizes::2MiB           12     15.58%    100.00% # Table walker page sizes translated (Count)
system.cpu1.mmu.dtb_walker.pageSizes::total           77                       # Table walker page sizes translated (Count)
system.cpu1.mmu.dtb_walker.requestOrigin_Requested::Data           78                       # Table walker requests started/completed, data/inst (Count)
system.cpu1.mmu.dtb_walker.requestOrigin_Requested::Inst            0                       # Table walker requests started/completed, data/inst (Count)
system.cpu1.mmu.dtb_walker.requestOrigin_Requested::total           78                       # Table walker requests started/completed, data/inst (Count)
system.cpu1.mmu.dtb_walker.requestOrigin_Completed::Data           77                       # Table walker requests started/completed, data/inst (Count)
system.cpu1.mmu.dtb_walker.requestOrigin_Completed::Inst            0                       # Table walker requests started/completed, data/inst (Count)
system.cpu1.mmu.dtb_walker.requestOrigin_Completed::total           77                       # Table walker requests started/completed, data/inst (Count)
system.cpu1.mmu.dtb_walker.requestOrigin::total          155                       # Table walker requests started/completed, data/inst (Count)
system.cpu1.mmu.dtb_walker.power_state.pwrStateResidencyTicks::UNDEFINED 579750123500                       # Cumulative time (in ticks) in various power states (Tick)
system.cpu1.mmu.itb.instHits                  3936456                       # Inst hits (Count)
system.cpu1.mmu.itb.instMisses                    132                       # Inst misses (Count)
system.cpu1.mmu.itb.inserts                       132                       # Number of times an entry is inserted into the TLB (Count)
system.cpu1.mmu.itb.flushTlb                        0                       # Number of times complete TLB was flushed (Count)
system.cpu1.mmu.itb.flushTlbMva                     0                       # Number of times TLB was flushed by MVA (Count)
system.cpu1.mmu.itb.flushTlbMvaAsid               126                       # Number of times TLB was flushed by MVA & ASID (Count)
system.cpu1.mmu.itb.flushTlbAsid                    6                       # Number of times TLB was flushed by ASID (Count)
system.cpu1.mmu.itb.flushedEntries                  0                       # Number of entries that have been flushed from TLB (Count)
system.cpu1.mmu.itb.instAccesses              3936588                       # Inst accesses (Count)
system.cpu1.mmu.itb.hits                      3936456                       # Total TLB (inst and data) hits (Count)
system.cpu1.mmu.itb.misses                        132                       # Total TLB (inst and data) misses (Count)
system.cpu1.mmu.itb.accesses                  3936588                       # Total TLB (inst and data) accesses (Count)
system.cpu1.mmu.itb_walker.walks                  107                       # Table walker walks requested (Count)
system.cpu1.mmu.itb_walker.walksLongDescriptor          107                       # Table walker walks initiated with long descriptors (Count)
system.cpu1.mmu.itb_walker.walkWaitTime::samples          107                       # Table walker wait (enqueue to first request) latency (Tick)
system.cpu1.mmu.itb_walker.walkWaitTime::0          107    100.00%    100.00% # Table walker wait (enqueue to first request) latency (Tick)
system.cpu1.mmu.itb_walker.walkWaitTime::total          107                       # Table walker wait (enqueue to first request) latency (Tick)
system.cpu1.mmu.itb_walker.pageSizes::4KiB          105     98.13%     98.13% # Table walker page sizes translated (Count)
system.cpu1.mmu.itb_walker.pageSizes::2MiB            2      1.87%    100.00% # Table walker page sizes translated (Count)
system.cpu1.mmu.itb_walker.pageSizes::total          107                       # Table walker page sizes translated (Count)
system.cpu1.mmu.itb_walker.requestOrigin_Requested::Data            0                       # Table walker requests started/completed, data/inst (Count)
system.cpu1.mmu.itb_walker.requestOrigin_Requested::Inst          107                       # Table walker requests started/completed, data/inst (Count)
system.cpu1.mmu.itb_walker.requestOrigin_Requested::total          107                       # Table walker requests started/completed, data/inst (Count)
system.cpu1.mmu.itb_walker.requestOrigin_Completed::Data            0                       # Table walker requests started/completed, data/inst (Count)
system.cpu1.mmu.itb_walker.requestOrigin_Completed::Inst          107                       # Table walker requests started/completed, data/inst (Count)
system.cpu1.mmu.itb_walker.requestOrigin_Completed::total          107                       # Table walker requests started/completed, data/inst (Count)
system.cpu1.mmu.itb_walker.requestOrigin::total          214                       # Table walker requests started/completed, data/inst (Count)
system.cpu1.mmu.itb_walker.power_state.pwrStateResidencyTicks::UNDEFINED 579750123500                       # Cumulative time (in ticks) in various power states (Tick)
system.cpu1.mmu.l2_shared.partialHits             166                       # partial translation hits (Count)
system.cpu1.mmu.l2_shared.instHits                126                       # Inst hits (Count)
system.cpu1.mmu.l2_shared.instMisses                6                       # Inst misses (Count)
system.cpu1.mmu.l2_shared.readHits                 61                       # Read hits (Count)
system.cpu1.mmu.l2_shared.readMisses               14                       # Read misses (Count)
system.cpu1.mmu.l2_shared.writeHits                 9                       # Write hits (Count)
system.cpu1.mmu.l2_shared.writeMisses               3                       # Write misses (Count)
system.cpu1.mmu.l2_shared.inserts                 192                       # Number of times an entry is inserted into the TLB (Count)
system.cpu1.mmu.l2_shared.flushTlb                  0                       # Number of times complete TLB was flushed (Count)
system.cpu1.mmu.l2_shared.flushTlbMva               0                       # Number of times TLB was flushed by MVA (Count)
system.cpu1.mmu.l2_shared.flushTlbMvaAsid          126                       # Number of times TLB was flushed by MVA & ASID (Count)
system.cpu1.mmu.l2_shared.flushTlbAsid              6                       # Number of times TLB was flushed by ASID (Count)
system.cpu1.mmu.l2_shared.flushedEntries            2                       # Number of entries that have been flushed from TLB (Count)
system.cpu1.mmu.l2_shared.readAccesses             75                       # Read accesses (Count)
system.cpu1.mmu.l2_shared.writeAccesses            12                       # Write accesses (Count)
system.cpu1.mmu.l2_shared.instAccesses            132                       # Inst accesses (Count)
system.cpu1.mmu.l2_shared.hits                    196                       # Total TLB (inst and data) hits (Count)
system.cpu1.mmu.l2_shared.misses                   23                       # Total TLB (inst and data) misses (Count)
system.cpu1.mmu.l2_shared.accesses                219                       # Total TLB (inst and data) accesses (Count)
system.cpu1.mmu.stage2_dtb.readHits                 0                       # Read hits (Count)
system.cpu1.mmu.stage2_dtb.readMisses               0                       # Read misses (Count)
system.cpu1.mmu.stage2_dtb.writeHits                0                       # Write hits (Count)
system.cpu1.mmu.stage2_dtb.writeMisses              0                       # Write misses (Count)
system.cpu1.mmu.stage2_dtb.inserts                  0                       # Number of times an entry is inserted into the TLB (Count)
system.cpu1.mmu.stage2_dtb.flushTlb                 0                       # Number of times complete TLB was flushed (Count)
system.cpu1.mmu.stage2_dtb.flushTlbMva              0                       # Number of times TLB was flushed by MVA (Count)
system.cpu1.mmu.stage2_dtb.flushTlbMvaAsid            0                       # Number of times TLB was flushed by MVA & ASID (Count)
system.cpu1.mmu.stage2_dtb.flushTlbAsid             0                       # Number of times TLB was flushed by ASID (Count)
system.cpu1.mmu.stage2_dtb.flushedEntries            0                       # Number of entries that have been flushed from TLB (Count)
system.cpu1.mmu.stage2_dtb.readAccesses             0                       # Read accesses (Count)
system.cpu1.mmu.stage2_dtb.writeAccesses            0                       # Write accesses (Count)
system.cpu1.mmu.stage2_dtb.hits                     0                       # Total TLB (inst and data) hits (Count)
system.cpu1.mmu.stage2_dtb.misses                   0                       # Total TLB (inst and data) misses (Count)
system.cpu1.mmu.stage2_dtb.accesses                 0                       # Total TLB (inst and data) accesses (Count)
system.cpu1.mmu.stage2_dtb_walker.walks             0                       # Table walker walks requested (Count)
system.cpu1.mmu.stage2_dtb_walker.requestOrigin_Requested::Data            0                       # Table walker requests started/completed, data/inst (Count)
system.cpu1.mmu.stage2_dtb_walker.requestOrigin_Requested::Inst            0                       # Table walker requests started/completed, data/inst (Count)
system.cpu1.mmu.stage2_dtb_walker.requestOrigin_Requested::total            0                       # Table walker requests started/completed, data/inst (Count)
system.cpu1.mmu.stage2_dtb_walker.requestOrigin_Completed::Data            0                       # Table walker requests started/completed, data/inst (Count)
system.cpu1.mmu.stage2_dtb_walker.requestOrigin_Completed::Inst            0                       # Table walker requests started/completed, data/inst (Count)
system.cpu1.mmu.stage2_dtb_walker.requestOrigin_Completed::total            0                       # Table walker requests started/completed, data/inst (Count)
system.cpu1.mmu.stage2_dtb_walker.requestOrigin::total            0                       # Table walker requests started/completed, data/inst (Count)
system.cpu1.mmu.stage2_dtb_walker.power_state.pwrStateResidencyTicks::UNDEFINED 579750123500                       # Cumulative time (in ticks) in various power states (Tick)
system.cpu1.mmu.stage2_itb.instHits                 0                       # Inst hits (Count)
system.cpu1.mmu.stage2_itb.instMisses               0                       # Inst misses (Count)
system.cpu1.mmu.stage2_itb.inserts                  0                       # Number of times an entry is inserted into the TLB (Count)
system.cpu1.mmu.stage2_itb.flushTlb                 0                       # Number of times complete TLB was flushed (Count)
system.cpu1.mmu.stage2_itb.flushTlbMva              0                       # Number of times TLB was flushed by MVA (Count)
system.cpu1.mmu.stage2_itb.flushTlbMvaAsid            0                       # Number of times TLB was flushed by MVA & ASID (Count)
system.cpu1.mmu.stage2_itb.flushTlbAsid             0                       # Number of times TLB was flushed by ASID (Count)
system.cpu1.mmu.stage2_itb.flushedEntries            0                       # Number of entries that have been flushed from TLB (Count)
system.cpu1.mmu.stage2_itb.instAccesses             0                       # Inst accesses (Count)
system.cpu1.mmu.stage2_itb.hits                     0                       # Total TLB (inst and data) hits (Count)
system.cpu1.mmu.stage2_itb.misses                   0                       # Total TLB (inst and data) misses (Count)
system.cpu1.mmu.stage2_itb.accesses                 0                       # Total TLB (inst and data) accesses (Count)
system.cpu1.mmu.stage2_itb_walker.walks             0                       # Table walker walks requested (Count)
system.cpu1.mmu.stage2_itb_walker.requestOrigin_Requested::Data            0                       # Table walker requests started/completed, data/inst (Count)
system.cpu1.mmu.stage2_itb_walker.requestOrigin_Requested::Inst            0                       # Table walker requests started/completed, data/inst (Count)
system.cpu1.mmu.stage2_itb_walker.requestOrigin_Requested::total            0                       # Table walker requests started/completed, data/inst (Count)
system.cpu1.mmu.stage2_itb_walker.requestOrigin_Completed::Data            0                       # Table walker requests started/completed, data/inst (Count)
system.cpu1.mmu.stage2_itb_walker.requestOrigin_Completed::Inst            0                       # Table walker requests started/completed, data/inst (Count)
system.cpu1.mmu.stage2_itb_walker.requestOrigin_Completed::total            0                       # Table walker requests started/completed, data/inst (Count)
system.cpu1.mmu.stage2_itb_walker.requestOrigin::total            0                       # Table walker requests started/completed, data/inst (Count)
system.cpu1.mmu.stage2_itb_walker.power_state.pwrStateResidencyTicks::UNDEFINED 579750123500                       # Cumulative time (in ticks) in various power states (Tick)
system.cpu1.power_state.numTransitions             22                       # Number of power state transitions (Count)
system.cpu1.power_state.ticksClkGated::samples           12                       # Distribution of time spent in the clock gated state (Tick)
system.cpu1.power_state.ticksClkGated::mean 130229156.333333                       # Distribution of time spent in the clock gated state (Tick)
system.cpu1.power_state.ticksClkGated::stdev 47621124.791646                       # Distribution of time spent in the clock gated state (Tick)
system.cpu1.power_state.ticksClkGated::1000-5e+10           12    100.00%    100.00% # Distribution of time spent in the clock gated state (Tick)
system.cpu1.power_state.ticksClkGated::min_value     34381500                       # Distribution of time spent in the clock gated state (Tick)
system.cpu1.power_state.ticksClkGated::max_value    162416068                       # Distribution of time spent in the clock gated state (Tick)
system.cpu1.power_state.ticksClkGated::total           12                       # Distribution of time spent in the clock gated state (Tick)
system.cpu1.power_state.pwrStateResidencyTicks::ON   2265526624                       # Cumulative time (in ticks) in various power states (Tick)
system.cpu1.power_state.pwrStateResidencyTicks::CLK_GATED   1562749876                       # Cumulative time (in ticks) in various power states (Tick)
system.cpu1.thread_0.numInsts                       0                       # Number of Instructions committed (Count)
system.cpu1.thread_0.numOps                         0                       # Number of Ops committed (Count)
system.cpu1.thread_0.numMemRefs                     0                       # Number of Memory References (Count)
system.cpu2.numCycles                         7656564                       # Number of cpu cycles simulated (Cycle)
system.cpu2.numWorkItemsStarted                     0                       # Number of work items this cpu started (Count)
system.cpu2.numWorkItemsCompleted                   0                       # Number of work items this cpu completed (Count)
system.cpu2.exec_context.thread_0.numInsts      4363967                       # Number of instructions committed (Count)
system.cpu2.exec_context.thread_0.numOps      5029907                       # Number of ops (including micro ops) committed (Count)
system.cpu2.exec_context.thread_0.numIntAluAccesses      4479592                       # Number of integer alu accesses (Count)
system.cpu2.exec_context.thread_0.numFpAluAccesses            0                       # Number of float alu accesses (Count)
system.cpu2.exec_context.thread_0.numVecAluAccesses          359                       # Number of vector alu accesses (Count)
system.cpu2.exec_context.thread_0.numCallsReturns       249341                       # Number of times a function call or return occured (Count)
system.cpu2.exec_context.thread_0.numCondCtrlInsts       615027                       # Number of instructions that are conditional controls (Count)
system.cpu2.exec_context.thread_0.numIntInsts      4479592                       # Number of integer instructions (Count)
system.cpu2.exec_context.thread_0.numFpInsts            0                       # Number of float instructions (Count)
system.cpu2.exec_context.thread_0.numVecInsts          359                       # Number of vector instructions (Count)
system.cpu2.exec_context.thread_0.numIntRegReads      6192738                       # Number of times the integer registers were read (Count)
system.cpu2.exec_context.thread_0.numIntRegWrites      3457796                       # Number of times the integer registers were written (Count)
system.cpu2.exec_context.thread_0.numFpRegReads            0                       # Number of times the floating registers were read (Count)
system.cpu2.exec_context.thread_0.numFpRegWrites            0                       # Number of times the floating registers were written (Count)
system.cpu2.exec_context.thread_0.numVecRegReads          289                       # Number of times the vector registers were read (Count)
system.cpu2.exec_context.thread_0.numVecRegWrites          156                       # Number of times the vector registers were written (Count)
system.cpu2.exec_context.thread_0.numVecPredRegReads            0                       # Number of times the predicate registers were read (Count)
system.cpu2.exec_context.thread_0.numVecPredRegWrites            0                       # Number of times the predicate registers were written (Count)
system.cpu2.exec_context.thread_0.numCCRegReads     13591419                       # Number of times the CC registers were read (Count)
system.cpu2.exec_context.thread_0.numCCRegWrites      3059251                       # Number of times the CC registers were written (Count)
system.cpu2.exec_context.thread_0.numMiscRegReads       603192                       # Number of times the Misc registers were read (Count)
system.cpu2.exec_context.thread_0.numMiscRegWrites         7794                       # Number of times the Misc registers were written (Count)
system.cpu2.exec_context.thread_0.numMemRefs       726900                       # Number of memory refs (Count)
system.cpu2.exec_context.thread_0.numLoadInsts       393696                       # Number of load instructions (Count)
system.cpu2.exec_context.thread_0.numStoreInsts       333204                       # Number of store instructions (Count)
system.cpu2.exec_context.thread_0.numIdleCycles 2516456.269130                       # Number of idle cycles (Cycle)
system.cpu2.exec_context.thread_0.numBusyCycles 5140107.730870                       # Number of busy cycles (Cycle)
system.cpu2.exec_context.thread_0.notIdleFraction     0.671333                       # Percentage of non-idle cycles (Ratio)
system.cpu2.exec_context.thread_0.idleFraction     0.328667                       # Percentage of idle cycles (Ratio)
system.cpu2.exec_context.thread_0.numBranches       829370                       # Number of branches fetched (Count)
system.cpu2.exec_context.thread_0.statExecutedInstType::No_OpClass           97      0.00%      0.00% # Class of executed instruction. (Count)
system.cpu2.exec_context.thread_0.statExecutedInstType::IntAlu      4164259     82.79%     82.79% # Class of executed instruction. (Count)
system.cpu2.exec_context.thread_0.statExecutedInstType::IntMult       138581      2.76%     85.55% # Class of executed instruction. (Count)
system.cpu2.exec_context.thread_0.statExecutedInstType::IntDiv           63      0.00%     85.55% # Class of executed instruction. (Count)
system.cpu2.exec_context.thread_0.statExecutedInstType::FloatAdd            0      0.00%     85.55% # Class of executed instruction. (Count)
system.cpu2.exec_context.thread_0.statExecutedInstType::FloatCmp            0      0.00%     85.55% # Class of executed instruction. (Count)
system.cpu2.exec_context.thread_0.statExecutedInstType::FloatCvt            0      0.00%     85.55% # Class of executed instruction. (Count)
system.cpu2.exec_context.thread_0.statExecutedInstType::FloatMult            0      0.00%     85.55% # Class of executed instruction. (Count)
system.cpu2.exec_context.thread_0.statExecutedInstType::FloatMultAcc            0      0.00%     85.55% # Class of executed instruction. (Count)
system.cpu2.exec_context.thread_0.statExecutedInstType::FloatDiv            0      0.00%     85.55% # Class of executed instruction. (Count)
system.cpu2.exec_context.thread_0.statExecutedInstType::FloatMisc            0      0.00%     85.55% # Class of executed instruction. (Count)
system.cpu2.exec_context.thread_0.statExecutedInstType::FloatSqrt            0      0.00%     85.55% # Class of executed instruction. (Count)
system.cpu2.exec_context.thread_0.statExecutedInstType::SimdAdd           14      0.00%     85.55% # Class of executed instruction. (Count)
system.cpu2.exec_context.thread_0.statExecutedInstType::SimdAddAcc            0      0.00%     85.55% # Class of executed instruction. (Count)
system.cpu2.exec_context.thread_0.statExecutedInstType::SimdAlu           14      0.00%     85.55% # Class of executed instruction. (Count)
system.cpu2.exec_context.thread_0.statExecutedInstType::SimdCmp           12      0.00%     85.55% # Class of executed instruction. (Count)
system.cpu2.exec_context.thread_0.statExecutedInstType::SimdCvt            0      0.00%     85.55% # Class of executed instruction. (Count)
system.cpu2.exec_context.thread_0.statExecutedInstType::SimdMisc           14      0.00%     85.55% # Class of executed instruction. (Count)
system.cpu2.exec_context.thread_0.statExecutedInstType::SimdMult            0      0.00%     85.55% # Class of executed instruction. (Count)
system.cpu2.exec_context.thread_0.statExecutedInstType::SimdMultAcc            0      0.00%     85.55% # Class of executed instruction. (Count)
system.cpu2.exec_context.thread_0.statExecutedInstType::SimdShift            0      0.00%     85.55% # Class of executed instruction. (Count)
system.cpu2.exec_context.thread_0.statExecutedInstType::SimdShiftAcc            0      0.00%     85.55% # Class of executed instruction. (Count)
system.cpu2.exec_context.thread_0.statExecutedInstType::SimdDiv            0      0.00%     85.55% # Class of executed instruction. (Count)
system.cpu2.exec_context.thread_0.statExecutedInstType::SimdSqrt            0      0.00%     85.55% # Class of executed instruction. (Count)
system.cpu2.exec_context.thread_0.statExecutedInstType::SimdFloatAdd            0      0.00%     85.55% # Class of executed instruction. (Count)
system.cpu2.exec_context.thread_0.statExecutedInstType::SimdFloatAlu            0      0.00%     85.55% # Class of executed instruction. (Count)
system.cpu2.exec_context.thread_0.statExecutedInstType::SimdFloatCmp            0      0.00%     85.55% # Class of executed instruction. (Count)
system.cpu2.exec_context.thread_0.statExecutedInstType::SimdFloatCvt            0      0.00%     85.55% # Class of executed instruction. (Count)
system.cpu2.exec_context.thread_0.statExecutedInstType::SimdFloatDiv            0      0.00%     85.55% # Class of executed instruction. (Count)
system.cpu2.exec_context.thread_0.statExecutedInstType::SimdFloatMisc            0      0.00%     85.55% # Class of executed instruction. (Count)
system.cpu2.exec_context.thread_0.statExecutedInstType::SimdFloatMult            0      0.00%     85.55% # Class of executed instruction. (Count)
system.cpu2.exec_context.thread_0.statExecutedInstType::SimdFloatMultAcc            0      0.00%     85.55% # Class of executed instruction. (Count)
system.cpu2.exec_context.thread_0.statExecutedInstType::SimdFloatSqrt            0      0.00%     85.55% # Class of executed instruction. (Count)
system.cpu2.exec_context.thread_0.statExecutedInstType::SimdReduceAdd            0      0.00%     85.55% # Class of executed instruction. (Count)
system.cpu2.exec_context.thread_0.statExecutedInstType::SimdReduceAlu            0      0.00%     85.55% # Class of executed instruction. (Count)
system.cpu2.exec_context.thread_0.statExecutedInstType::SimdReduceCmp            0      0.00%     85.55% # Class of executed instruction. (Count)
system.cpu2.exec_context.thread_0.statExecutedInstType::SimdFloatReduceAdd            0      0.00%     85.55% # Class of executed instruction. (Count)
system.cpu2.exec_context.thread_0.statExecutedInstType::SimdFloatReduceCmp            0      0.00%     85.55% # Class of executed instruction. (Count)
system.cpu2.exec_context.thread_0.statExecutedInstType::SimdAes            0      0.00%     85.55% # Class of executed instruction. (Count)
system.cpu2.exec_context.thread_0.statExecutedInstType::SimdAesMix            0      0.00%     85.55% # Class of executed instruction. (Count)
system.cpu2.exec_context.thread_0.statExecutedInstType::SimdSha1Hash            0      0.00%     85.55% # Class of executed instruction. (Count)
system.cpu2.exec_context.thread_0.statExecutedInstType::SimdSha1Hash2            0      0.00%     85.55% # Class of executed instruction. (Count)
system.cpu2.exec_context.thread_0.statExecutedInstType::SimdSha256Hash            0      0.00%     85.55% # Class of executed instruction. (Count)
system.cpu2.exec_context.thread_0.statExecutedInstType::SimdSha256Hash2            0      0.00%     85.55% # Class of executed instruction. (Count)
system.cpu2.exec_context.thread_0.statExecutedInstType::SimdShaSigma2            0      0.00%     85.55% # Class of executed instruction. (Count)
system.cpu2.exec_context.thread_0.statExecutedInstType::SimdShaSigma3            0      0.00%     85.55% # Class of executed instruction. (Count)
system.cpu2.exec_context.thread_0.statExecutedInstType::SimdPredAlu            0      0.00%     85.55% # Class of executed instruction. (Count)
system.cpu2.exec_context.thread_0.statExecutedInstType::MemRead       393696      7.83%     93.38% # Class of executed instruction. (Count)
system.cpu2.exec_context.thread_0.statExecutedInstType::MemWrite       333204      6.62%    100.00% # Class of executed instruction. (Count)
system.cpu2.exec_context.thread_0.statExecutedInstType::FloatMemRead            0      0.00%    100.00% # Class of executed instruction. (Count)
system.cpu2.exec_context.thread_0.statExecutedInstType::FloatMemWrite            0      0.00%    100.00% # Class of executed instruction. (Count)
system.cpu2.exec_context.thread_0.statExecutedInstType::IprAccess            0      0.00%    100.00% # Class of executed instruction. (Count)
system.cpu2.exec_context.thread_0.statExecutedInstType::InstPrefetch            0      0.00%    100.00% # Class of executed instruction. (Count)
system.cpu2.exec_context.thread_0.statExecutedInstType::total      5029954                       # Class of executed instruction. (Count)
system.cpu2.mmu.alignFaults                         0                       # Number of MMU faults due to alignment restrictions (Count)
system.cpu2.mmu.prefetchFaults                     19                       # Number of MMU faults due to prefetch (Count)
system.cpu2.mmu.domainFaults                        0                       # Number of MMU faults due to domain restrictions (Count)
system.cpu2.mmu.permsFaults                         5                       # Number of MMU faults due to permissions restrictions (Count)
system.cpu2.mmu.dtb.readHits                   321382                       # Read hits (Count)
system.cpu2.mmu.dtb.readMisses                    256                       # Read misses (Count)
system.cpu2.mmu.dtb.writeHits                  333162                       # Write hits (Count)
system.cpu2.mmu.dtb.writeMisses                    61                       # Write misses (Count)
system.cpu2.mmu.dtb.inserts                       268                       # Number of times an entry is inserted into the TLB (Count)
system.cpu2.mmu.dtb.flushTlb                        0                       # Number of times complete TLB was flushed (Count)
system.cpu2.mmu.dtb.flushTlbMva                     0                       # Number of times TLB was flushed by MVA (Count)
system.cpu2.mmu.dtb.flushTlbMvaAsid               126                       # Number of times TLB was flushed by MVA & ASID (Count)
system.cpu2.mmu.dtb.flushTlbAsid                    6                       # Number of times TLB was flushed by ASID (Count)
system.cpu2.mmu.dtb.flushedEntries                  5                       # Number of entries that have been flushed from TLB (Count)
system.cpu2.mmu.dtb.readAccesses               321638                       # Read accesses (Count)
system.cpu2.mmu.dtb.writeAccesses              333223                       # Write accesses (Count)
system.cpu2.mmu.dtb.hits                       654544                       # Total TLB (inst and data) hits (Count)
system.cpu2.mmu.dtb.misses                        317                       # Total TLB (inst and data) misses (Count)
system.cpu2.mmu.dtb.accesses                   654861                       # Total TLB (inst and data) accesses (Count)
system.cpu2.mmu.dtb_walker.walks                  281                       # Table walker walks requested (Count)
system.cpu2.mmu.dtb_walker.walksLongDescriptor          281                       # Table walker walks initiated with long descriptors (Count)
system.cpu2.mmu.dtb_walker.walkWaitTime::samples          281                       # Table walker wait (enqueue to first request) latency (Tick)
system.cpu2.mmu.dtb_walker.walkWaitTime::0          281    100.00%    100.00% # Table walker wait (enqueue to first request) latency (Tick)
system.cpu2.mmu.dtb_walker.walkWaitTime::total          281                       # Table walker wait (enqueue to first request) latency (Tick)
system.cpu2.mmu.dtb_walker.pageSizes::4KiB          212     84.46%     84.46% # Table walker page sizes translated (Count)
system.cpu2.mmu.dtb_walker.pageSizes::2MiB           39     15.54%    100.00% # Table walker page sizes translated (Count)
system.cpu2.mmu.dtb_walker.pageSizes::total          251                       # Table walker page sizes translated (Count)
system.cpu2.mmu.dtb_walker.requestOrigin_Requested::Data          281                       # Table walker requests started/completed, data/inst (Count)
system.cpu2.mmu.dtb_walker.requestOrigin_Requested::Inst            0                       # Table walker requests started/completed, data/inst (Count)
system.cpu2.mmu.dtb_walker.requestOrigin_Requested::total          281                       # Table walker requests started/completed, data/inst (Count)
system.cpu2.mmu.dtb_walker.requestOrigin_Completed::Data          251                       # Table walker requests started/completed, data/inst (Count)
system.cpu2.mmu.dtb_walker.requestOrigin_Completed::Inst            0                       # Table walker requests started/completed, data/inst (Count)
system.cpu2.mmu.dtb_walker.requestOrigin_Completed::total          251                       # Table walker requests started/completed, data/inst (Count)
system.cpu2.mmu.dtb_walker.requestOrigin::total          532                       # Table walker requests started/completed, data/inst (Count)
system.cpu2.mmu.dtb_walker.power_state.pwrStateResidencyTicks::UNDEFINED 579750123500                       # Cumulative time (in ticks) in various power states (Tick)
system.cpu2.mmu.itb.instHits                  4363377                       # Inst hits (Count)
system.cpu2.mmu.itb.instMisses                    657                       # Inst misses (Count)
system.cpu2.mmu.itb.inserts                       637                       # Number of times an entry is inserted into the TLB (Count)
system.cpu2.mmu.itb.flushTlb                        0                       # Number of times complete TLB was flushed (Count)
system.cpu2.mmu.itb.flushTlbMva                     0                       # Number of times TLB was flushed by MVA (Count)
system.cpu2.mmu.itb.flushTlbMvaAsid               126                       # Number of times TLB was flushed by MVA & ASID (Count)
system.cpu2.mmu.itb.flushTlbAsid                    6                       # Number of times TLB was flushed by ASID (Count)
system.cpu2.mmu.itb.flushedEntries                  0                       # Number of entries that have been flushed from TLB (Count)
system.cpu2.mmu.itb.instAccesses              4364034                       # Inst accesses (Count)
[...]
system.membus.pktSize_system.cpu3.icache_port::system.mem_ctrls.port     15773612                       # Cumulative packet size per connected requestor and responder (Byte)
system.membus.pktSize_system.cpu3.icache_port::total     15773612                       # Cumulative packet size per connected requestor and responder (Byte)
system.membus.pktSize_system.cpu3.dcache_port::system.bridge.cpu_side_port           20                       # Cumulative packet size per connected requestor and responder (Byte)
system.membus.pktSize_system.cpu3.dcache_port::system.realview.gic.pio           24                       # Cumulative packet size per connected requestor and responder (Byte)
system.membus.pktSize_system.cpu3.dcache_port::system.mem_ctrls.port      2788017                       # Cumulative packet size per connected requestor and responder (Byte)
system.membus.pktSize_system.cpu3.dcache_port::total      2788061                       # Cumulative packet size per connected requestor and responder (Byte)
system.membus.pktSize_system.cpu3.mmu.itb_walker.port::system.mem_ctrls.port         1104                       # Cumulative packet size per connected requestor and responder (Byte)
system.membus.pktSize_system.cpu3.mmu.itb_walker.port::total         1104                       # Cumulative packet size per connected requestor and responder (Byte)
system.membus.pktSize_system.cpu3.mmu.dtb_walker.port::system.mem_ctrls.port          896                       # Cumulative packet size per connected requestor and responder (Byte)
system.membus.pktSize_system.cpu3.mmu.dtb_walker.port::total          896                       # Cumulative packet size per connected requestor and responder (Byte)
system.membus.pktSize_system.cpu4.icache_port::system.mem_ctrls.port     15767292                       # Cumulative packet size per connected requestor and responder (Byte)
system.membus.pktSize_system.cpu4.icache_port::total     15767292                       # Cumulative packet size per connected requestor and responder (Byte)
system.membus.pktSize_system.cpu4.dcache_port::system.bridge.cpu_side_port           20                       # Cumulative packet size per connected requestor and responder (Byte)
system.membus.pktSize_system.cpu4.dcache_port::system.realview.gic.pio           24                       # Cumulative packet size per connected requestor and responder (Byte)
system.membus.pktSize_system.cpu4.dcache_port::system.mem_ctrls.port      2778698                       # Cumulative packet size per connected requestor and responder (Byte)
system.membus.pktSize_system.cpu4.dcache_port::total      2778742                       # Cumulative packet size per connected requestor and responder (Byte)
system.membus.pktSize_system.cpu4.mmu.itb_walker.port::system.mem_ctrls.port         1104                       # Cumulative packet size per connected requestor and responder (Byte)
system.membus.pktSize_system.cpu4.mmu.itb_walker.port::total         1104                       # Cumulative packet size per connected requestor and responder (Byte)
system.membus.pktSize_system.cpu4.mmu.dtb_walker.port::system.mem_ctrls.port          856                       # Cumulative packet size per connected requestor and responder (Byte)
system.membus.pktSize_system.cpu4.mmu.dtb_walker.port::total          856                       # Cumulative packet size per connected requestor and responder (Byte)
system.membus.pktSize_system.cpu5.icache_port::system.mem_ctrls.port     15784480                       # Cumulative packet size per connected requestor and responder (Byte)
system.membus.pktSize_system.cpu5.icache_port::total     15784480                       # Cumulative packet size per connected requestor and responder (Byte)
system.membus.pktSize_system.cpu5.dcache_port::system.bridge.cpu_side_port           24                       # Cumulative packet size per connected requestor and responder (Byte)
system.membus.pktSize_system.cpu5.dcache_port::system.realview.gic.pio           24                       # Cumulative packet size per connected requestor and responder (Byte)
system.membus.pktSize_system.cpu5.dcache_port::system.mem_ctrls.port      2805459                       # Cumulative packet size per connected requestor and responder (Byte)
system.membus.pktSize_system.cpu5.dcache_port::total      2805507                       # Cumulative packet size per connected requestor and responder (Byte)
system.membus.pktSize_system.cpu5.mmu.itb_walker.port::system.mem_ctrls.port         1024                       # Cumulative packet size per connected requestor and responder (Byte)
system.membus.pktSize_system.cpu5.mmu.itb_walker.port::total         1024                       # Cumulative packet size per connected requestor and responder (Byte)
system.membus.pktSize_system.cpu5.mmu.dtb_walker.port::system.mem_ctrls.port          848                       # Cumulative packet size per connected requestor and responder (Byte)
system.membus.pktSize_system.cpu5.mmu.dtb_walker.port::total          848                       # Cumulative packet size per connected requestor and responder (Byte)
system.membus.pktSize_system.cpu6.icache_port::system.mem_ctrls.port     16576768                       # Cumulative packet size per connected requestor and responder (Byte)
system.membus.pktSize_system.cpu6.icache_port::total     16576768                       # Cumulative packet size per connected requestor and responder (Byte)
system.membus.pktSize_system.cpu6.dcache_port::system.bridge.cpu_side_port           84                       # Cumulative packet size per connected requestor and responder (Byte)
system.membus.pktSize_system.cpu6.dcache_port::system.realview.gic.pio           68                       # Cumulative packet size per connected requestor and responder (Byte)
system.membus.pktSize_system.cpu6.dcache_port::system.mem_ctrls.port      3582226                       # Cumulative packet size per connected requestor and responder (Byte)
system.membus.pktSize_system.cpu6.dcache_port::total      3582378                       # Cumulative packet size per connected requestor and responder (Byte)
system.membus.pktSize_system.cpu6.mmu.itb_walker.port::system.mem_ctrls.port         3936                       # Cumulative packet size per connected requestor and responder (Byte)
system.membus.pktSize_system.cpu6.mmu.itb_walker.port::total         3936                       # Cumulative packet size per connected requestor and responder (Byte)
system.membus.pktSize_system.cpu6.mmu.dtb_walker.port::system.mem_ctrls.port         2912                       # Cumulative packet size per connected requestor and responder (Byte)
system.membus.pktSize_system.cpu6.mmu.dtb_walker.port::total         2912                       # Cumulative packet size per connected requestor and responder (Byte)
system.membus.pktSize_system.cpu7.icache_port::system.mem_ctrls.port     25899016                       # Cumulative packet size per connected requestor and responder (Byte)
system.membus.pktSize_system.cpu7.icache_port::total     25899016                       # Cumulative packet size per connected requestor and responder (Byte)
system.membus.pktSize_system.cpu7.dcache_port::system.bridge.cpu_side_port          371                       # Cumulative packet size per connected requestor and responder (Byte)
system.membus.pktSize_system.cpu7.dcache_port::system.realview.gic.pio          144                       # Cumulative packet size per connected requestor and responder (Byte)
system.membus.pktSize_system.cpu7.dcache_port::system.mem_ctrls.port     16622477                       # Cumulative packet size per connected requestor and responder (Byte)
system.membus.pktSize_system.cpu7.dcache_port::total     16622992                       # Cumulative packet size per connected requestor and responder (Byte)
system.membus.pktSize_system.cpu7.mmu.itb_walker.port::system.mem_ctrls.port         4616                       # Cumulative packet size per connected requestor and responder (Byte)
system.membus.pktSize_system.cpu7.mmu.itb_walker.port::total         4616                       # Cumulative packet size per connected requestor and responder (Byte)
system.membus.pktSize_system.cpu7.mmu.dtb_walker.port::system.mem_ctrls.port         3880                       # Cumulative packet size per connected requestor and responder (Byte)
system.membus.pktSize_system.cpu7.mmu.dtb_walker.port::total         3880                       # Cumulative packet size per connected requestor and responder (Byte)
system.membus.pktSize::total                179815181                       # Cumulative packet size per connected requestor and responder (Byte)
system.membus.snoops                                0                       # Total snoops (Count)
system.membus.snoopTraffic                          0                       # Total snoop traffic (Byte)
system.membus.snoopFanout::samples           42423019                       # Request fanout histogram (Count)
system.membus.snoopFanout::mean                     0                       # Request fanout histogram (Count)
system.membus.snoopFanout::stdev                    0                       # Request fanout histogram (Count)
system.membus.snoopFanout::underflows               0      0.00%      0.00% # Request fanout histogram (Count)
system.membus.snoopFanout::0                 42423019    100.00%    100.00% # Request fanout histogram (Count)
system.membus.snoopFanout::1                        0      0.00%    100.00% # Request fanout histogram (Count)
system.membus.snoopFanout::2                        0      0.00%    100.00% # Request fanout histogram (Count)
system.membus.snoopFanout::3                        0      0.00%    100.00% # Request fanout histogram (Count)
system.membus.snoopFanout::4                        0      0.00%    100.00% # Request fanout histogram (Count)
system.membus.snoopFanout::5                        0      0.00%    100.00% # Request fanout histogram (Count)
system.membus.snoopFanout::6                        0      0.00%    100.00% # Request fanout histogram (Count)
system.membus.snoopFanout::7                        0      0.00%    100.00% # Request fanout histogram (Count)
system.membus.snoopFanout::8                        0      0.00%    100.00% # Request fanout histogram (Count)
system.membus.snoopFanout::overflows                0      0.00%    100.00% # Request fanout histogram (Count)
system.membus.snoopFanout::min_value                0                       # Request fanout histogram (Count)
system.membus.snoopFanout::max_value                0                       # Request fanout histogram (Count)
system.membus.snoopFanout::total             42423019                       # Request fanout histogram (Count)
system.membus.badaddr_responder.power_state.pwrStateResidencyTicks::UNDEFINED 579750123500                       # Cumulative time (in ticks) in various power states (Tick)
system.membus.power_state.pwrStateResidencyTicks::UNDEFINED 579750123500                       # Cumulative time (in ticks) in various power states (Tick)
system.membus.snoop_filter.totRequests           7616                       # Total number of requests made to the snoop filter. (Count)
system.membus.snoop_filter.hitSingleRequests            0                       # Number of requests hitting in the snoop filter with a single holder of the requested data. (Count)
system.membus.snoop_filter.hitMultiRequests            0                       # Number of requests hitting in the snoop filter with multiple (>1) holders of the requested data. (Count)
system.membus.snoop_filter.totSnoops                0                       # Total number of snoops made to the snoop filter. (Count)
system.membus.snoop_filter.hitSingleSnoops            0                       # Number of snoops hitting in the snoop filter with a single holder of the requested data. (Count)
system.membus.snoop_filter.hitMultiSnoops            0                       # Number of snoops hitting in the snoop filter with multiple (>1) holders of the requested data. (Count)
system.pci_ide.disks.IdeDisk.dmaReadFullPages            0                       # Number of full page size DMA reads (not PRD). (Count)
system.pci_ide.disks.IdeDisk.dmaReadBytes            0                       # Number of bytes transfered via DMA reads (not PRD). (Byte)
system.pci_ide.disks.IdeDisk.dmaReadTxs             0                       # Number of DMA read transactions (not PRD). (Count)
system.pci_ide.disks.IdeDisk.dmaWriteFullPages          137                       # Number of full page size DMA writes. (Count)
system.pci_ide.disks.IdeDisk.dmaWriteBytes       561152                       # Number of bytes transfered via DMA writes. (Byte)
system.pci_ide.disks.IdeDisk.dmaWriteTxs          137                       # Number of DMA write transactions. (Count)
system.pci_ide.power_state.pwrStateResidencyTicks::UNDEFINED 579750123500                       # Cumulative time (in ticks) in various power states (Tick)
system.realview.bootmem.power_state.pwrStateResidencyTicks::UNDEFINED 579750123500                       # Cumulative time (in ticks) in various power states (Tick)
system.realview.clock24MHz.clock                41667                       # Clock period in ticks (Tick)
system.realview.clock32KHz.clock             31250000                       # Clock period in ticks (Tick)
system.realview.dcc.osc_cpu.clock               16667                       # Clock period in ticks (Tick)
system.realview.dcc.osc_ddr.clock               25000                       # Clock period in ticks (Tick)
system.realview.dcc.osc_hsbm.clock              25000                       # Clock period in ticks (Tick)
system.realview.dcc.osc_pxl.clock               42105                       # Clock period in ticks (Tick)
system.realview.dcc.osc_smb.clock               20000                       # Clock period in ticks (Tick)
system.realview.dcc.osc_sys.clock               16667                       # Clock period in ticks (Tick)
system.realview.el2_watchdog.power_state.pwrStateResidencyTicks::UNDEFINED 579750123500                       # Cumulative time (in ticks) in various power states (Tick)
system.realview.energy_ctrl.power_state.pwrStateResidencyTicks::UNDEFINED 579750123500                       # Cumulative time (in ticks) in various power states (Tick)
system.realview.flash0.power_state.pwrStateResidencyTicks::UNDEFINED 579750123500                       # Cumulative time (in ticks) in various power states (Tick)
system.realview.flash1.power_state.pwrStateResidencyTicks::UNDEFINED 579750123500                       # Cumulative time (in ticks) in various power states (Tick)
system.realview.generic_timer_mem.frames0.power_state.pwrStateResidencyTicks::UNDEFINED 579750123500                       # Cumulative time (in ticks) in various power states (Tick)
system.realview.generic_timer_mem.frames1.power_state.pwrStateResidencyTicks::UNDEFINED 579750123500                       # Cumulative time (in ticks) in various power states (Tick)
system.realview.generic_timer_mem.power_state.pwrStateResidencyTicks::UNDEFINED 579750123500                       # Cumulative time (in ticks) in various power states (Tick)
system.realview.gic.power_state.pwrStateResidencyTicks::UNDEFINED 579750123500                       # Cumulative time (in ticks) in various power states (Tick)
system.realview.gicv2m.power_state.pwrStateResidencyTicks::UNDEFINED 579750123500                       # Cumulative time (in ticks) in various power states (Tick)
system.realview.io_voltage.voltage           3.300000                       # Voltage in Volts (Volt)
system.realview.kmi0.power_state.pwrStateResidencyTicks::UNDEFINED 579750123500                       # Cumulative time (in ticks) in various power states (Tick)
system.realview.kmi1.power_state.pwrStateResidencyTicks::UNDEFINED 579750123500                       # Cumulative time (in ticks) in various power states (Tick)
system.realview.mcc.osc_clcd.clock              42105                       # Clock period in ticks (Tick)
system.realview.mcc.osc_mcc.clock               20000                       # Clock period in ticks (Tick)
system.realview.mcc.osc_peripheral.clock        41667                       # Clock period in ticks (Tick)
system.realview.mcc.osc_system_bus.clock        41667                       # Clock period in ticks (Tick)
system.realview.non_trusted_sram.power_state.pwrStateResidencyTicks::UNDEFINED 579750123500                       # Cumulative time (in ticks) in various power states (Tick)
system.realview.pci_host.power_state.pwrStateResidencyTicks::UNDEFINED 579750123500                       # Cumulative time (in ticks) in various power states (Tick)
system.realview.pwr_ctrl.power_state.pwrStateResidencyTicks::UNDEFINED 579750123500                       # Cumulative time (in ticks) in various power states (Tick)
system.realview.realview_io.power_state.pwrStateResidencyTicks::UNDEFINED 579750123500                       # Cumulative time (in ticks) in various power states (Tick)
system.realview.rtc.power_state.pwrStateResidencyTicks::UNDEFINED 579750123500                       # Cumulative time (in ticks) in various power states (Tick)
system.realview.system_watchdog.power_state.pwrStateResidencyTicks::UNDEFINED 579750123500                       # Cumulative time (in ticks) in various power states (Tick)
system.realview.trusted_dram.power_state.pwrStateResidencyTicks::UNDEFINED 579750123500                       # Cumulative time (in ticks) in various power states (Tick)
system.realview.trusted_sram.power_state.pwrStateResidencyTicks::UNDEFINED 579750123500                       # Cumulative time (in ticks) in various power states (Tick)
system.realview.trusted_watchdog.power_state.pwrStateResidencyTicks::UNDEFINED 579750123500                       # Cumulative time (in ticks) in various power states (Tick)
system.realview.uart0.power_state.pwrStateResidencyTicks::UNDEFINED 579750123500                       # Cumulative time (in ticks) in various power states (Tick)
system.realview.uart1.power_state.pwrStateResidencyTicks::UNDEFINED 579750123500                       # Cumulative time (in ticks) in various power states (Tick)
system.realview.uart2.power_state.pwrStateResidencyTicks::UNDEFINED 579750123500                       # Cumulative time (in ticks) in various power states (Tick)
system.realview.uart3.power_state.pwrStateResidencyTicks::UNDEFINED 579750123500                       # Cumulative time (in ticks) in various power states (Tick)
system.realview.vgic.power_state.pwrStateResidencyTicks::UNDEFINED 579750123500                       # Cumulative time (in ticks) in various power states (Tick)
system.realview.vio0.power_state.pwrStateResidencyTicks::UNDEFINED 579750123500                       # Cumulative time (in ticks) in various power states (Tick)
system.realview.vio1.power_state.pwrStateResidencyTicks::UNDEFINED 579750123500                       # Cumulative time (in ticks) in various power states (Tick)
system.realview.vram.power_state.pwrStateResidencyTicks::UNDEFINED 579750123500                       # Cumulative time (in ticks) in various power states (Tick)
system.realview.watchdog.power_state.pwrStateResidencyTicks::UNDEFINED 579750123500                       # Cumulative time (in ticks) in various power states (Tick)
system.voltage_domain.voltage                       1                       # Voltage in Volts (Volt)
system.workload.inst.arm                            0                       # number of arm instructions executed (Count)
system.workload.inst.quiesce                       94                       # number of quiesce instructions executed (Count)

---------- End Simulation Statistics   ----------
