
---------- Begin Simulation Statistics ----------
simSeconds                                   0.048875                       # Number of seconds simulated (Second)
simTicks                                  48875069500                       # Number of ticks simulated (Tick)
finalTick                                 48875069500                       # Number of ticks from beginning of simulation (restored from checkpoints and never reset) (Tick)
simFreq                                  1000000000000                       # The number of ticks per simulated second ((Tick/Second))
hostSeconds                                    650.72                       # Real time elapsed on the host (Second)
hostTickRate                                 75109295                       # The number of ticks simulated per host second (ticks/s) ((Tick/Second))
hostMemory                                    2247168                       # Number of bytes of host memory used (Byte)
simInsts                                    200000006                       # Number of instructions simulated (Count)
simOps                                      227162985                       # Number of ops (including micro ops) simulated (Count)
hostInstRate                                   307352                       # Simulator instruction rate (inst/s) ((Count/Second))
hostOpRate                                     349095                       # Simulator op (including micro ops) rate (op/s) ((Count/Second))
system.clk_domain.clock                           500                       # Clock period in ticks (Tick)
system.clk_domain.voltage_domain.voltage            1                       # Voltage in Volts (Volt)
system.cpu.numCycles                         97750140                       # Number of cpu cycles simulated (Cycle)
system.cpu.numWorkItemsStarted                      0                       # Number of work items this cpu started (Count)
system.cpu.numWorkItemsCompleted                    0                       # Number of work items this cpu completed (Count)
system.cpu.instsAdded                       248644701                       # Number of instructions added to the IQ (excludes non-spec) (Count)
system.cpu.nonSpecInstsAdded                     1170                       # Number of non-speculative instructions added to the IQ (Count)
system.cpu.instsIssued                      241457209                       # Number of instructions issued (Count)
system.cpu.squashedInstsIssued                   2179                       # Number of squashed instructions issued (Count)
system.cpu.squashedInstsExamined             21482867                       # Number of squashed instructions iterated over during squash; mainly for profiling (Count)
system.cpu.squashedOperandsExamined          51921848                       # Number of squashed operands that are examined and possibly removed from graph (Count)
system.cpu.squashedNonSpecRemoved                 135                       # Number of squashed non-spec instructions that were removed (Count)
system.cpu.numIssuedDist::samples            97662648                       # Number of insts issued each cycle (Count)
system.cpu.numIssuedDist::mean               2.472360                       # Number of insts issued each cycle (Count)
system.cpu.numIssuedDist::stdev              1.940413                       # Number of insts issued each cycle (Count)
system.cpu.numIssuedDist::underflows                0      0.00%      0.00% # Number of insts issued each cycle (Count)
system.cpu.numIssuedDist::0                  15825086     16.20%     16.20% # Number of insts issued each cycle (Count)
system.cpu.numIssuedDist::1                  18804259     19.25%     35.46% # Number of insts issued each cycle (Count)
system.cpu.numIssuedDist::2                  21498668     22.01%     57.47% # Number of insts issued each cycle (Count)
system.cpu.numIssuedDist::3                  15938227     16.32%     73.79% # Number of insts issued each cycle (Count)
system.cpu.numIssuedDist::4                   9637796      9.87%     83.66% # Number of insts issued each cycle (Count)
system.cpu.numIssuedDist::5                   8039675      8.23%     91.89% # Number of insts issued each cycle (Count)
system.cpu.numIssuedDist::6                   4169435      4.27%     96.16% # Number of insts issued each cycle (Count)
system.cpu.numIssuedDist::7                   1921252      1.97%     98.13% # Number of insts issued each cycle (Count)
system.cpu.numIssuedDist::8                   1828250      1.87%    100.00% # Number of insts issued each cycle (Count)
system.cpu.numIssuedDist::overflows                 0      0.00%    100.00% # Number of insts issued each cycle (Count)
system.cpu.numIssuedDist::min_value                 0                       # Number of insts issued each cycle (Count)
system.cpu.numIssuedDist::max_value                 8                       # Number of insts issued each cycle (Count)
system.cpu.numIssuedDist::total              97662648                       # Number of insts issued each cycle (Count)
system.cpu.statFuBusy::No_OpClass                   0      0.00%      0.00% # attempts to use FU when none available (Count)
system.cpu.statFuBusy::IntAlu                  459936     15.06%     15.06% # attempts to use FU when none available (Count)
system.cpu.statFuBusy::IntMult                      0      0.00%     15.06% # attempts to use FU when none available (Count)
system.cpu.statFuBusy::IntDiv                       0      0.00%     15.06% # attempts to use FU when none available (Count)
system.cpu.statFuBusy::FloatAdd                     0      0.00%     15.06% # attempts to use FU when none available (Count)
system.cpu.statFuBusy::FloatCmp                     0      0.00%     15.06% # attempts to use FU when none available (Count)
system.cpu.statFuBusy::FloatCvt                     0      0.00%     15.06% # attempts to use FU when none available (Count)
system.cpu.statFuBusy::FloatMult                    0      0.00%     15.06% # attempts to use FU when none available (Count)
system.cpu.statFuBusy::FloatMultAcc                 0      0.00%     15.06% # attempts to use FU when none available (Count)
system.cpu.statFuBusy::FloatDiv                     0      0.00%     15.06% # attempts to use FU when none available (Count)
system.cpu.statFuBusy::FloatMisc                    0      0.00%     15.06% # attempts to use FU when none available (Count)
system.cpu.statFuBusy::FloatSqrt                    0      0.00%     15.06% # attempts to use FU when none available (Count)
system.cpu.statFuBusy::SimdAdd                      0      0.00%     15.06% # attempts to use FU when none available (Count)
system.cpu.statFuBusy::SimdAddAcc                   0      0.00%     15.06% # attempts to use FU when none available (Count)
system.cpu.statFuBusy::SimdAlu                      0      0.00%     15.06% # attempts to use FU when none available (Count)
system.cpu.statFuBusy::SimdCmp                      0      0.00%     15.06% # attempts to use FU when none available (Count)
system.cpu.statFuBusy::SimdCvt                      0      0.00%     15.06% # attempts to use FU when none available (Count)
system.cpu.statFuBusy::SimdMisc                     0      0.00%     15.06% # attempts to use FU when none available (Count)
system.cpu.statFuBusy::SimdMult                     0      0.00%     15.06% # attempts to use FU when none available (Count)
system.cpu.statFuBusy::SimdMultAcc                  0      0.00%     15.06% # attempts to use FU when none available (Count)
system.cpu.statFuBusy::SimdShift                    0      0.00%     15.06% # attempts to use FU when none available (Count)
system.cpu.statFuBusy::SimdShiftAcc                 0      0.00%     15.06% # attempts to use FU when none available (Count)
system.cpu.statFuBusy::SimdDiv                      0      0.00%     15.06% # attempts to use FU when none available (Count)
system.cpu.statFuBusy::SimdSqrt                     0      0.00%     15.06% # attempts to use FU when none available (Count)
system.cpu.statFuBusy::SimdFloatAdd                 0      0.00%     15.06% # attempts to use FU when none available (Count)
system.cpu.statFuBusy::SimdFloatAlu                 0      0.00%     15.06% # attempts to use FU when none available (Count)
system.cpu.statFuBusy::SimdFloatCmp                 0      0.00%     15.06% # attempts to use FU when none available (Count)
system.cpu.statFuBusy::SimdFloatCvt                 0      0.00%     15.06% # attempts to use FU when none available (Count)
system.cpu.statFuBusy::SimdFloatDiv                 0      0.00%     15.06% # attempts to use FU when none available (Count)
system.cpu.statFuBusy::SimdFloatMisc                0      0.00%     15.06% # attempts to use FU when none available (Count)
system.cpu.statFuBusy::SimdFloatMult                0      0.00%     15.06% # attempts to use FU when none available (Count)
system.cpu.statFuBusy::SimdFloatMultAcc             0      0.00%     15.06% # attempts to use FU when none available (Count)
system.cpu.statFuBusy::SimdFloatSqrt                0      0.00%     15.06% # attempts to use FU when none available (Count)
system.cpu.statFuBusy::SimdReduceAdd                0      0.00%     15.06% # attempts to use FU when none available (Count)
system.cpu.statFuBusy::SimdReduceAlu                0      0.00%     15.06% # attempts to use FU when none available (Count)
system.cpu.statFuBusy::SimdReduceCmp                0      0.00%     15.06% # attempts to use FU when none available (Count)
system.cpu.statFuBusy::SimdFloatReduceAdd            0      0.00%     15.06% # attempts to use FU when none available (Count)
system.cpu.statFuBusy::SimdFloatReduceCmp            0      0.00%     15.06% # attempts to use FU when none available (Count)
system.cpu.statFuBusy::SimdAes                      0      0.00%     15.06% # attempts to use FU when none available (Count)
system.cpu.statFuBusy::SimdAesMix                   0      0.00%     15.06% # attempts to use FU when none available (Count)
system.cpu.statFuBusy::SimdSha1Hash                 0      0.00%     15.06% # attempts to use FU when none available (Count)
system.cpu.statFuBusy::SimdSha1Hash2                0      0.00%     15.06% # attempts to use FU when none available (Count)
system.cpu.statFuBusy::SimdSha256Hash               0      0.00%     15.06% # attempts to use FU when none available (Count)
system.cpu.statFuBusy::SimdSha256Hash2              0      0.00%     15.06% # attempts to use FU when none available (Count)
system.cpu.statFuBusy::SimdShaSigma2                0      0.00%     15.06% # attempts to use FU when none available (Count)
system.cpu.statFuBusy::SimdShaSigma3                0      0.00%     15.06% # attempts to use FU when none available (Count)
system.cpu.statFuBusy::SimdPredAlu                  0      0.00%     15.06% # attempts to use FU when none available (Count)
system.cpu.statFuBusy::MemRead                1856379     60.77%     75.83% # attempts to use FU when none available (Count)
system.cpu.statFuBusy::MemWrite                738220     24.17%    100.00% # attempts to use FU when none available (Count)
system.cpu.statFuBusy::FloatMemRead                 0      0.00%    100.00% # attempts to use FU when none available (Count)
system.cpu.statFuBusy::FloatMemWrite                0      0.00%    100.00% # attempts to use FU when none available (Count)
system.cpu.statFuBusy::IprAccess                    0      0.00%    100.00% # attempts to use FU when none available (Count)
system.cpu.statFuBusy::InstPrefetch                 0      0.00%    100.00% # attempts to use FU when none available (Count)
system.cpu.statIssuedInstType_0::No_OpClass           12      0.00%      0.00% # Number of instructions issued per FU type, per thread (Count)
system.cpu.statIssuedInstType_0::IntAlu     153031093     63.38%     63.38% # Number of instructions issued per FU type, per thread (Count)
system.cpu.statIssuedInstType_0::IntMult      1145500      0.47%     63.85% # Number of instructions issued per FU type, per thread (Count)
system.cpu.statIssuedInstType_0::IntDiv             0      0.00%     63.85% # Number of instructions issued per FU type, per thread (Count)
system.cpu.statIssuedInstType_0::FloatAdd            0      0.00%     63.85% # Number of instructions issued per FU type, per thread (Count)
system.cpu.statIssuedInstType_0::FloatCmp            0      0.00%     63.85% # Number of instructions issued per FU type, per thread (Count)
system.cpu.statIssuedInstType_0::FloatCvt            0      0.00%     63.85% # Number of instructions issued per FU type, per thread (Count)
system.cpu.statIssuedInstType_0::FloatMult            0      0.00%     63.85% # Number of instructions issued per FU type, per thread (Count)
system.cpu.statIssuedInstType_0::FloatMultAcc            0      0.00%     63.85% # Number of instructions issued per FU type, per thread (Count)
system.cpu.statIssuedInstType_0::FloatDiv            0      0.00%     63.85% # Number of instructions issued per FU type, per thread (Count)
system.cpu.statIssuedInstType_0::FloatMisc            0      0.00%     63.85% # Number of instructions issued per FU type, per thread (Count)
system.cpu.statIssuedInstType_0::FloatSqrt            0      0.00%     63.85% # Number of instructions issued per FU type, per thread (Count)
system.cpu.statIssuedInstType_0::SimdAdd            0      0.00%     63.85% # Number of instructions issued per FU type, per thread (Count)
system.cpu.statIssuedInstType_0::SimdAddAcc            0      0.00%     63.85% # Number of instructions issued per FU type, per thread (Count)
system.cpu.statIssuedInstType_0::SimdAlu            0      0.00%     63.85% # Number of instructions issued per FU type, per thread (Count)
system.cpu.statIssuedInstType_0::SimdCmp            0      0.00%     63.85% # Number of instructions issued per FU type, per thread (Count)
system.cpu.statIssuedInstType_0::SimdCvt            0      0.00%     63.85% # Number of instructions issued per FU type, per thread (Count)
system.cpu.statIssuedInstType_0::SimdMisc            0      0.00%     63.85% # Number of instructions issued per FU type, per thread (Count)
system.cpu.statIssuedInstType_0::SimdMult            0      0.00%     63.85% # Number of instructions issued per FU type, per thread (Count)
system.cpu.statIssuedInstType_0::SimdMultAcc            0      0.00%     63.85% # Number of instructions issued per FU type, per thread (Count)
system.cpu.statIssuedInstType_0::SimdShift            0      0.00%     63.85% # Number of instructions issued per FU type, per thread (Count)
system.cpu.statIssuedInstType_0::SimdShiftAcc            0      0.00%     63.85% # Number of instructions issued per FU type, per thread (Count)
system.cpu.statIssuedInstType_0::SimdDiv            0      0.00%     63.85% # Number of instructions issued per FU type, per thread (Count)
system.cpu.statIssuedInstType_0::SimdSqrt            0      0.00%     63.85% # Number of instructions issued per FU type, per thread (Count)
system.cpu.statIssuedInstType_0::SimdFloatAdd            0      0.00%     63.85% # Number of instructions issued per FU type, per thread (Count)
system.cpu.statIssuedInstType_0::SimdFloatAlu            0      0.00%     63.85% # Number of instructions issued per FU type, per thread (Count)
system.cpu.statIssuedInstType_0::SimdFloatCmp            0      0.00%     63.85% # Number of instructions issued per FU type, per thread (Count)
system.cpu.statIssuedInstType_0::SimdFloatCvt            0      0.00%     63.85% # Number of instructions issued per FU type, per thread (Count)
system.cpu.statIssuedInstType_0::SimdFloatDiv            0      0.00%     63.85% # Number of instructions issued per FU type, per thread (Count)
system.cpu.statIssuedInstType_0::SimdFloatMisc            0      0.00%     63.85% # Number of instructions issued per FU type, per thread (Count)
system.cpu.statIssuedInstType_0::SimdFloatMult            0      0.00%     63.85% # Number of instructions issued per FU type, per thread (Count)
system.cpu.statIssuedInstType_0::SimdFloatMultAcc            0      0.00%     63.85% # Number of instructions issued per FU type, per thread (Count)
system.cpu.statIssuedInstType_0::SimdFloatSqrt            0      0.00%     63.85% # Number of instructions issued per FU type, per thread (Count)
system.cpu.statIssuedInstType_0::SimdReduceAdd            0      0.00%     63.85% # Number of instructions issued per FU type, per thread (Count)
system.cpu.statIssuedInstType_0::SimdReduceAlu            0      0.00%     63.85% # Number of instructions issued per FU type, per thread (Count)
system.cpu.statIssuedInstType_0::SimdReduceCmp            0      0.00%     63.85% # Number of instructions issued per FU type, per thread (Count)
system.cpu.statIssuedInstType_0::SimdFloatReduceAdd            0      0.00%     63.85% # Number of instructions issued per FU type, per thread (Count)
system.cpu.statIssuedInstType_0::SimdFloatReduceCmp            0      0.00%     63.85% # Number of instructions issued per FU type, per thread (Count)
system.cpu.statIssuedInstType_0::SimdAes            0      0.00%     63.85% # Number of instructions issued per FU type, per thread (Count)
system.cpu.statIssuedInstType_0::SimdAesMix            0      0.00%     63.85% # Number of instructions issued per FU type, per thread (Count)
system.cpu.statIssuedInstType_0::SimdSha1Hash            0      0.00%     63.85% # Number of instructions issued per FU type, per thread (Count)
system.cpu.statIssuedInstType_0::SimdSha1Hash2            0      0.00%     63.85% # Number of instructions issued per FU type, per thread (Count)
system.cpu.statIssuedInstType_0::SimdSha256Hash            0      0.00%     63.85% # Number of instructions issued per FU type, per thread (Count)
system.cpu.statIssuedInstType_0::SimdSha256Hash2            0      0.00%     63.85% # Number of instructions issued per FU type, per thread (Count)
system.cpu.statIssuedInstType_0::SimdShaSigma2            0      0.00%     63.85% # Number of instructions issued per FU type, per thread (Count)
system.cpu.statIssuedInstType_0::SimdShaSigma3            0      0.00%     63.85% # Number of instructions issued per FU type, per thread (Count)
system.cpu.statIssuedInstType_0::SimdPredAlu            0      0.00%     63.85% # Number of instructions issued per FU type, per thread (Count)
system.cpu.statIssuedInstType_0::MemRead     56135959     23.25%     87.10% # Number of instructions issued per FU type, per thread (Count)
system.cpu.statIssuedInstType_0::MemWrite     31144645     12.90%    100.00% # Number of instructions issued per FU type, per thread (Count)
system.cpu.statIssuedInstType_0::FloatMemRead            0      0.00%    100.00% # Number of instructions issued per FU type, per thread (Count)
system.cpu.statIssuedInstType_0::FloatMemWrite            0      0.00%    100.00% # Number of instructions issued per FU type, per thread (Count)
system.cpu.statIssuedInstType_0::IprAccess            0      0.00%    100.00% # Number of instructions issued per FU type, per thread (Count)
system.cpu.statIssuedInstType_0::InstPrefetch            0      0.00%    100.00% # Number of instructions issued per FU type, per thread (Count)
system.cpu.statIssuedInstType_0::total      241457209                       # Number of instructions issued per FU type, per thread (Count)
system.cpu.issueRate                         2.470147                       # Inst issue rate ((Count/Cycle))
system.cpu.fuBusy                             3054535                       # FU busy when requested (Count)
system.cpu.fuBusyRate                        0.012650                       # FU busy rate (busy events/executed inst) ((Count/Count))
system.cpu.intInstQueueReads                583633778                       # Number of integer instruction queue reads (Count)
system.cpu.intInstQueueWrites               270133279                       # Number of integer instruction queue writes (Count)
system.cpu.intInstQueueWakeupAccesses       235485391                       # Number of integer instruction queue wakeup accesses (Count)
system.cpu.fpInstQueueReads                         0                       # Number of floating instruction queue reads (Count)
system.cpu.fpInstQueueWrites                        0                       # Number of floating instruction queue writes (Count)
system.cpu.fpInstQueueWakeupAccesses                0                       # Number of floating instruction queue wakeup accesses (Count)
system.cpu.vecInstQueueReads                        0                       # Number of vector instruction queue reads (Count)
system.cpu.vecInstQueueWrites                       0                       # Number of vector instruction queue writes (Count)
system.cpu.vecInstQueueWakeupAccesses               0                       # Number of vector instruction queue wakeup accesses (Count)
system.cpu.intAluAccesses                   244511732                       # Number of integer alu accesses (Count)
system.cpu.fpAluAccesses                            0                       # Number of floating point alu accesses (Count)
system.cpu.vecAluAccesses                           0                       # Number of vector alu accesses (Count)
system.cpu.numInsts                         239663866                       # Number of executed instructions (Count)
system.cpu.numLoadInsts                      55497279                       # Number of load instructions executed (Count)
system.cpu.numSquashedInsts                   1793341                       # Number of squashed instructions skipped in execute (Count)
system.cpu.numSwp                                   0                       # Number of swp insts executed (Count)
system.cpu.numNop                                   0                       # Number of nop insts executed (Count)
system.cpu.numRefs                           86381186                       # Number of memory reference insts executed (Count)
system.cpu.numBranches                       38596096                       # Number of branches executed (Count)
system.cpu.numStoreInsts                     30883907                       # Number of stores executed (Count)
system.cpu.numRate                           2.451801                       # Inst execution rate ((Count/Cycle))
system.cpu.timesIdled                            2021                       # Number of times that the entire CPU went into an idle state and unscheduled itself (Count)
system.cpu.idleCycles                           87492                       # Total number of cycles that the CPU has spent unscheduled due to idling (Cycle)
system.cpu.committedInsts                   200000006                       # Number of Instructions Simulated (Count)
system.cpu.committedOps                     227162985                       # Number of Ops (including micro ops) Simulated (Count)
system.cpu.cpi                               0.488751                       # CPI: Cycles Per Instruction ((Cycle/Count))
system.cpu.totalCpi                          0.488751                       # CPI: Total CPI of All Threads ((Cycle/Count))
system.cpu.ipc                               2.046033                       # IPC: Instructions Per Cycle ((Count/Cycle))
system.cpu.totalIpc                          2.046033                       # IPC: Total IPC of All Threads ((Count/Cycle))
system.cpu.intRegfileReads                  273812371                       # Number of integer regfile reads (Count)
system.cpu.intRegfileWrites                 140136611                       # Number of integer regfile writes (Count)
system.cpu.vecRegfileReads                         16                       # number of vector regfile reads (Count)
system.cpu.ccRegfileReads                   871940802                       # number of cc regfile reads (Count)
system.cpu.ccRegfileWrites                  121148486                       # number of cc regfile writes (Count)
system.cpu.miscRegfileReads                  81870488                       # number of misc regfile reads (Count)
system.cpu.miscRegfileWrites                     1653                       # number of misc regfile writes (Count)
system.cpu.MemDepUnit__0.insertedLoads       54267685                       # Number of loads inserted to the mem dependence unit. (Count)
system.cpu.MemDepUnit__0.insertedStores      31589297                       # Number of stores inserted to the mem dependence unit. (Count)
system.cpu.MemDepUnit__0.conflictingLoads     10179394                       # Number of conflicting loads. (Count)
system.cpu.MemDepUnit__0.conflictingStores      5537084                       # Number of conflicting stores. (Count)
system.cpu.MemDepUnit__1.insertedLoads              0                       # Number of loads inserted to the mem dependence unit. (Count)
system.cpu.MemDepUnit__1.insertedStores             0                       # Number of stores inserted to the mem dependence unit. (Count)
system.cpu.MemDepUnit__1.conflictingLoads            0                       # Number of conflicting loads. (Count)
system.cpu.MemDepUnit__1.conflictingStores            0                       # Number of conflicting stores. (Count)
system.cpu.MemDepUnit__2.insertedLoads              0                       # Number of loads inserted to the mem dependence unit. (Count)
system.cpu.MemDepUnit__2.insertedStores             0                       # Number of stores inserted to the mem dependence unit. (Count)
system.cpu.MemDepUnit__2.conflictingLoads            0                       # Number of conflicting loads. (Count)
system.cpu.MemDepUnit__2.conflictingStores            0                       # Number of conflicting stores. (Count)
system.cpu.MemDepUnit__3.insertedLoads              0                       # Number of loads inserted to the mem dependence unit. (Count)
system.cpu.MemDepUnit__3.insertedStores             0                       # Number of stores inserted to the mem dependence unit. (Count)
system.cpu.MemDepUnit__3.conflictingLoads            0                       # Number of conflicting loads. (Count)
system.cpu.MemDepUnit__3.conflictingStores            0                       # Number of conflicting stores. (Count)
system.cpu.branchPred.lookups                45361621                       # Number of BP lookups (Count)
system.cpu.branchPred.condPredicted          34413791                       # Number of conditional branches predicted (Count)
system.cpu.branchPred.condIncorrect           1202284                       # Number of conditional branches incorrect (Count)
system.cpu.branchPred.BTBLookups             14403612                       # Number of BTB lookups (Count)
system.cpu.branchPred.BTBHits                12500375                       # Number of BTB hits (Count)
system.cpu.branchPred.BTBHitRatio            0.867864                       # BTB Hit Ratio (Ratio)
system.cpu.branchPred.RASUsed                 4892299                       # Number of times the RAS was used to get a target. (Count)
system.cpu.branchPred.RASIncorrect               1244                       # Number of incorrect RAS predictions. (Count)
system.cpu.branchPred.indirectLookups          545413                       # Number of indirect predictor lookups. (Count)
system.cpu.branchPred.indirectHits             515300                       # Number of indirect target hits. (Count)
system.cpu.branchPred.indirectMisses            30113                       # Number of indirect misses. (Count)
system.cpu.branchPred.indirectMispredicted          481                       # Number of mispredicted indirect branches. (Count)
system.cpu.commit.commitSquashedInsts        21460775                       # The number of squashed insts skipped by commit (Count)
system.cpu.commit.commitNonSpecStalls            1035                       # The number of times commit has been forced to stall to communicate backwards (Count)
system.cpu.commit.branchMispredicts            687642                       # The number of times a branch was mispredicted (Count)
system.cpu.commit.numCommittedDist::samples     94677324                       # Number of insts commited each cycle (Count)
system.cpu.commit.numCommittedDist::mean     2.399339                       # Number of insts commited each cycle (Count)
system.cpu.commit.numCommittedDist::stdev     2.754425                       # Number of insts commited each cycle (Count)
system.cpu.commit.numCommittedDist::underflows            0      0.00%      0.00% # Number of insts commited each cycle (Count)
system.cpu.commit.numCommittedDist::0        25450328     26.88%     26.88% # Number of insts commited each cycle (Count)
system.cpu.commit.numCommittedDist::1        27920925     29.49%     56.37% # Number of insts commited each cycle (Count)
system.cpu.commit.numCommittedDist::2        14061007     14.85%     71.22% # Number of insts commited each cycle (Count)
system.cpu.commit.numCommittedDist::3         3201438      3.38%     74.60% # Number of insts commited each cycle (Count)
system.cpu.commit.numCommittedDist::4         4640408      4.90%     79.51% # Number of insts commited each cycle (Count)
system.cpu.commit.numCommittedDist::5         2696189      2.85%     82.35% # Number of insts commited each cycle (Count)
system.cpu.commit.numCommittedDist::6         1105610      1.17%     83.52% # Number of insts commited each cycle (Count)
system.cpu.commit.numCommittedDist::7         1971857      2.08%     85.60% # Number of insts commited each cycle (Count)
system.cpu.commit.numCommittedDist::8        13629562     14.40%    100.00% # Number of insts commited each cycle (Count)
system.cpu.commit.numCommittedDist::overflows            0      0.00%    100.00% # Number of insts commited each cycle (Count)
system.cpu.commit.numCommittedDist::min_value            0                       # Number of insts commited each cycle (Count)
system.cpu.commit.numCommittedDist::max_value            8                       # Number of insts commited each cycle (Count)
system.cpu.commit.numCommittedDist::total     94677324                       # Number of insts commited each cycle (Count)
system.cpu.commit.instsCommitted            200000006                       # Number of instructions committed (Count)
system.cpu.commit.opsCommitted              227162985                       # Number of ops (including micro ops) committed (Count)
system.cpu.commit.memRefs                    79987457                       # Number of memory references committed (Count)
system.cpu.commit.loads                      49773152                       # Number of loads committed (Count)
system.cpu.commit.amos                              0                       # Number of atomic instructions committed (Count)
system.cpu.commit.membars                         417                       # Number of memory barriers committed (Count)
system.cpu.commit.branches                   37456961                       # Number of branches committed (Count)
system.cpu.commit.vectorInstructions                0                       # Number of committed Vector instructions. (Count)
system.cpu.commit.floating                          0                       # Number of committed floating point instructions. (Count)
system.cpu.commit.integer                   197759243                       # Number of committed integer instructions. (Count)
system.cpu.commit.functionCalls               3769269                       # Number of function calls committed. (Count)
system.cpu.commit.committedInstType_0::No_OpClass            0      0.00%      0.00% # Class of committed instruction (Count)
system.cpu.commit.committedInstType_0::IntAlu    146071351     64.30%     64.30% # Class of committed instruction (Count)
system.cpu.commit.committedInstType_0::IntMult      1104177      0.49%     64.79% # Class of committed instruction (Count)
system.cpu.commit.committedInstType_0::IntDiv            0      0.00%     64.79% # Class of committed instruction (Count)
system.cpu.commit.committedInstType_0::FloatAdd            0      0.00%     64.79% # Class of committed instruction (Count)
system.cpu.commit.committedInstType_0::FloatCmp            0      0.00%     64.79% # Class of committed instruction (Count)
system.cpu.commit.committedInstType_0::FloatCvt            0      0.00%     64.79% # Class of committed instruction (Count)
system.cpu.commit.committedInstType_0::FloatMult            0      0.00%     64.79% # Class of committed instruction (Count)
system.cpu.commit.committedInstType_0::FloatMultAcc            0      0.00%     64.79% # Class of committed instruction (Count)
system.cpu.commit.committedInstType_0::FloatDiv            0      0.00%     64.79% # Class of committed instruction (Count)
system.cpu.commit.committedInstType_0::FloatMisc            0      0.00%     64.79% # Class of committed instruction (Count)
system.cpu.commit.committedInstType_0::FloatSqrt            0      0.00%     64.79% # Class of committed instruction (Count)
system.cpu.commit.committedInstType_0::SimdAdd            0      0.00%     64.79% # Class of committed instruction (Count)
system.cpu.commit.committedInstType_0::SimdAddAcc            0      0.00%     64.79% # Class of committed instruction (Count)
system.cpu.commit.committedInstType_0::SimdAlu            0      0.00%     64.79% # Class of committed instruction (Count)
system.cpu.commit.committedInstType_0::SimdCmp            0      0.00%     64.79% # Class of committed instruction (Count)
system.cpu.commit.committedInstType_0::SimdCvt            0      0.00%     64.79% # Class of committed instruction (Count)
system.cpu.commit.committedInstType_0::SimdMisc            0      0.00%     64.79% # Class of committed instruction (Count)
system.cpu.commit.committedInstType_0::SimdMult            0      0.00%     64.79% # Class of committed instruction (Count)
system.cpu.commit.committedInstType_0::SimdMultAcc            0      0.00%     64.79% # Class of committed instruction (Count)
system.cpu.commit.committedInstType_0::SimdShift            0      0.00%     64.79% # Class of committed instruction (Count)
system.cpu.commit.committedInstType_0::SimdShiftAcc            0      0.00%     64.79% # Class of committed instruction (Count)
system.cpu.commit.committedInstType_0::SimdDiv            0      0.00%     64.79% # Class of committed instruction (Count)
system.cpu.commit.committedInstType_0::SimdSqrt            0      0.00%     64.79% # Class of committed instruction (Count)
system.cpu.commit.committedInstType_0::SimdFloatAdd            0      0.00%     64.79% # Class of committed instruction (Count)
system.cpu.commit.committedInstType_0::SimdFloatAlu            0      0.00%     64.79% # Class of committed instruction (Count)
system.cpu.commit.committedInstType_0::SimdFloatCmp            0      0.00%     64.79% # Class of committed instruction (Count)
system.cpu.commit.committedInstType_0::SimdFloatCvt            0      0.00%     64.79% # Class of committed instruction (Count)
system.cpu.commit.committedInstType_0::SimdFloatDiv            0      0.00%     64.79% # Class of committed instruction (Count)
system.cpu.commit.committedInstType_0::SimdFloatMisc            0      0.00%     64.79% # Class of committed instruction (Count)
system.cpu.commit.committedInstType_0::SimdFloatMult            0      0.00%     64.79% # Class of committed instruction (Count)
system.cpu.commit.committedInstType_0::SimdFloatMultAcc            0      0.00%     64.79% # Class of committed instruction (Count)
system.cpu.commit.committedInstType_0::SimdFloatSqrt            0      0.00%     64.79% # Class of committed instruction (Count)
system.cpu.commit.committedInstType_0::SimdReduceAdd            0      0.00%     64.79% # Class of committed instruction (Count)
system.cpu.commit.committedInstType_0::SimdReduceAlu            0      0.00%     64.79% # Class of committed instruction (Count)
system.cpu.commit.committedInstType_0::SimdReduceCmp            0      0.00%     64.79% # Class of committed instruction (Count)
system.cpu.commit.committedInstType_0::SimdFloatReduceAdd            0      0.00%     64.79% # Class of committed instruction (Count)
system.cpu.commit.committedInstType_0::SimdFloatReduceCmp            0      0.00%     64.79% # Class of committed instruction (Count)
system.cpu.commit.committedInstType_0::SimdAes            0      0.00%     64.79% # Class of committed instruction (Count)
system.cpu.commit.committedInstType_0::SimdAesMix            0      0.00%     64.79% # Class of committed instruction (Count)
system.cpu.commit.committedInstType_0::SimdSha1Hash            0      0.00%     64.79% # Class of committed instruction (Count)
system.cpu.commit.committedInstType_0::SimdSha1Hash2            0      0.00%     64.79% # Class of committed instruction (Count)
system.cpu.commit.committedInstType_0::SimdSha256Hash            0      0.00%     64.79% # Class of committed instruction (Count)
system.cpu.commit.committedInstType_0::SimdSha256Hash2            0      0.00%     64.79% # Class of committed instruction (Count)
system.cpu.commit.committedInstType_0::SimdShaSigma2            0      0.00%     64.79% # Class of committed instruction (Count)
system.cpu.commit.committedInstType_0::SimdShaSigma3            0      0.00%     64.79% # Class of committed instruction (Count)
system.cpu.commit.committedInstType_0::SimdPredAlu            0      0.00%     64.79% # Class of committed instruction (Count)
system.cpu.commit.committedInstType_0::MemRead     49773152     21.91%     86.70% # Class of committed instruction (Count)
system.cpu.commit.committedInstType_0::MemWrite     30214305     13.30%    100.00% # Class of committed instruction (Count)
system.cpu.commit.committedInstType_0::FloatMemRead            0      0.00%    100.00% # Class of committed instruction (Count)
system.cpu.commit.committedInstType_0::FloatMemWrite            0      0.00%    100.00% # Class of committed instruction (Count)
system.cpu.commit.committedInstType_0::IprAccess            0      0.00%    100.00% # Class of committed instruction (Count)
system.cpu.commit.committedInstType_0::InstPrefetch            0      0.00%    100.00% # Class of committed instruction (Count)
system.cpu.commit.committedInstType_0::total    227162985                       # Class of committed instruction (Count)
system.cpu.commit.commitEligibleSamples      13629562                       # number cycles where commit BW limit reached (Cycle)
system.cpu.dcache.demandHits::cpu.data       73608798                       # number of demand (read+write) hits (Count)
system.cpu.dcache.demandHits::total          73608798                       # number of demand (read+write) hits (Count)
system.cpu.dcache.overallHits::cpu.data      73608798                       # number of overall hits (Count)
system.cpu.dcache.overallHits::total         73608798                       # number of overall hits (Count)
system.cpu.dcache.demandMisses::cpu.data       396411                       # number of demand (read+write) misses (Count)
system.cpu.dcache.demandMisses::total          396411                       # number of demand (read+write) misses (Count)
system.cpu.dcache.overallMisses::cpu.data       396411                       # number of overall misses (Count)
system.cpu.dcache.overallMisses::total         396411                       # number of overall misses (Count)
system.cpu.dcache.demandMissLatency::cpu.data  28198096478                       # number of demand (read+write) miss ticks (Tick)
system.cpu.dcache.demandMissLatency::total  28198096478                       # number of demand (read+write) miss ticks (Tick)
system.cpu.dcache.overallMissLatency::cpu.data  28198096478                       # number of overall miss ticks (Tick)
system.cpu.dcache.overallMissLatency::total  28198096478                       # number of overall miss ticks (Tick)
system.cpu.dcache.demandAccesses::cpu.data     74005209                       # number of demand (read+write) accesses (Count)
system.cpu.dcache.demandAccesses::total      74005209                       # number of demand (read+write) accesses (Count)
system.cpu.dcache.overallAccesses::cpu.data     74005209                       # number of overall (read+write) accesses (Count)
system.cpu.dcache.overallAccesses::total     74005209                       # number of overall (read+write) accesses (Count)
system.cpu.dcache.demandMissRate::cpu.data     0.005357                       # miss rate for demand accesses (Ratio)
system.cpu.dcache.demandMissRate::total      0.005357                       # miss rate for demand accesses (Ratio)
system.cpu.dcache.overallMissRate::cpu.data     0.005357                       # miss rate for overall accesses (Ratio)
system.cpu.dcache.overallMissRate::total     0.005357                       # miss rate for overall accesses (Ratio)
system.cpu.dcache.demandAvgMissLatency::cpu.data 71133.486402                       # average overall miss latency in ticks ((Tick/Count))
system.cpu.dcache.demandAvgMissLatency::total 71133.486402                       # average overall miss latency in ticks ((Tick/Count))
system.cpu.dcache.overallAvgMissLatency::cpu.data 71133.486402                       # average overall miss latency ((Tick/Count))
system.cpu.dcache.overallAvgMissLatency::total 71133.486402                       # average overall miss latency ((Tick/Count))
system.cpu.dcache.blockedCycles::no_mshrs         3152                       # number of cycles access was blocked (Cycle)
system.cpu.dcache.blockedCycles::no_targets          417                       # number of cycles access was blocked (Cycle)
system.cpu.dcache.blockedCauses::no_mshrs           80                       # number of times access was blocked (Count)
system.cpu.dcache.blockedCauses::no_targets            4                       # number of times access was blocked (Count)
system.cpu.dcache.avgBlocked::no_mshrs      39.400000                       # average number of cycles each access was blocked ((Cycle/Count))
system.cpu.dcache.avgBlocked::no_targets   104.250000                       # average number of cycles each access was blocked ((Cycle/Count))
system.cpu.dcache.writebacks::writebacks        31725                       # number of writebacks (Count)
system.cpu.dcache.writebacks::total             31725                       # number of writebacks (Count)
system.cpu.dcache.demandMshrHits::cpu.data       343889                       # number of demand (read+write) MSHR hits (Count)
system.cpu.dcache.demandMshrHits::total        343889                       # number of demand (read+write) MSHR hits (Count)
system.cpu.dcache.overallMshrHits::cpu.data       343889                       # number of overall MSHR hits (Count)
system.cpu.dcache.overallMshrHits::total       343889                       # number of overall MSHR hits (Count)
system.cpu.dcache.demandMshrMisses::cpu.data        52522                       # number of demand (read+write) MSHR misses (Count)
system.cpu.dcache.demandMshrMisses::total        52522                       # number of demand (read+write) MSHR misses (Count)
system.cpu.dcache.overallMshrMisses::cpu.data        52522                       # number of overall MSHR misses (Count)
system.cpu.dcache.overallMshrMisses::total        52522                       # number of overall MSHR misses (Count)
system.cpu.dcache.demandMshrMissLatency::cpu.data   3651885992                       # number of demand (read+write) MSHR miss ticks (Tick)
system.cpu.dcache.demandMshrMissLatency::total   3651885992                       # number of demand (read+write) MSHR miss ticks (Tick)
system.cpu.dcache.overallMshrMissLatency::cpu.data   3651885992                       # number of overall MSHR miss ticks (Tick)
system.cpu.dcache.overallMshrMissLatency::total   3651885992                       # number of overall MSHR miss ticks (Tick)
system.cpu.dcache.demandMshrMissRate::cpu.data     0.000710                       # mshr miss ratio for demand accesses (Ratio)
system.cpu.dcache.demandMshrMissRate::total     0.000710                       # mshr miss ratio for demand accesses (Ratio)
system.cpu.dcache.overallMshrMissRate::cpu.data     0.000710                       # mshr miss ratio for overall accesses (Ratio)
system.cpu.dcache.overallMshrMissRate::total     0.000710                       # mshr miss ratio for overall accesses (Ratio)
system.cpu.dcache.demandAvgMshrMissLatency::cpu.data 69530.596550                       # average overall mshr miss latency ((Tick/Count))
system.cpu.dcache.demandAvgMshrMissLatency::total 69530.596550                       # average overall mshr miss latency ((Tick/Count))
system.cpu.dcache.overallAvgMshrMissLatency::cpu.data 69530.596550                       # average overall mshr miss latency ((Tick/Count))
system.cpu.dcache.overallAvgMshrMissLatency::total 69530.596550                       # average overall mshr miss latency ((Tick/Count))
system.cpu.dcache.replacements                  52008                       # number of replacements (Count)
system.cpu.dcache.LoadLockedReq.hits::cpu.data          421                       # number of LoadLockedReq hits (Count)
system.cpu.dcache.LoadLockedReq.hits::total          421                       # number of LoadLockedReq hits (Count)
system.cpu.dcache.LoadLockedReq.misses::cpu.data           15                       # number of LoadLockedReq misses (Count)
system.cpu.dcache.LoadLockedReq.misses::total           15                       # number of LoadLockedReq misses (Count)
system.cpu.dcache.LoadLockedReq.missLatency::cpu.data       530000                       # number of LoadLockedReq miss ticks (Tick)
system.cpu.dcache.LoadLockedReq.missLatency::total       530000                       # number of LoadLockedReq miss ticks (Tick)
system.cpu.dcache.LoadLockedReq.accesses::cpu.data          436                       # number of LoadLockedReq accesses(hits+misses) (Count)
system.cpu.dcache.LoadLockedReq.accesses::total          436                       # number of LoadLockedReq accesses(hits+misses) (Count)
system.cpu.dcache.LoadLockedReq.missRate::cpu.data     0.034404                       # miss rate for LoadLockedReq accesses (Ratio)
system.cpu.dcache.LoadLockedReq.missRate::total     0.034404                       # miss rate for LoadLockedReq accesses (Ratio)
system.cpu.dcache.LoadLockedReq.avgMissLatency::cpu.data 35333.333333                       # average LoadLockedReq miss latency ((Tick/Count))
system.cpu.dcache.LoadLockedReq.avgMissLatency::total 35333.333333                       # average LoadLockedReq miss latency ((Tick/Count))
system.cpu.dcache.LoadLockedReq.mshrHits::cpu.data           15                       # number of LoadLockedReq MSHR hits (Count)
system.cpu.dcache.LoadLockedReq.mshrHits::total           15                       # number of LoadLockedReq MSHR hits (Count)
system.cpu.dcache.ReadReq.hits::cpu.data     44280869                       # number of ReadReq hits (Count)
system.cpu.dcache.ReadReq.hits::total        44280869                       # number of ReadReq hits (Count)
system.cpu.dcache.ReadReq.misses::cpu.data       110486                       # number of ReadReq misses (Count)
system.cpu.dcache.ReadReq.misses::total        110486                       # number of ReadReq misses (Count)
system.cpu.dcache.ReadReq.missLatency::cpu.data   4963869500                       # number of ReadReq miss ticks (Tick)
system.cpu.dcache.ReadReq.missLatency::total   4963869500                       # number of ReadReq miss ticks (Tick)
system.cpu.dcache.ReadReq.accesses::cpu.data     44391355                       # number of ReadReq accesses(hits+misses) (Count)
system.cpu.dcache.ReadReq.accesses::total     44391355                       # number of ReadReq accesses(hits+misses) (Count)
system.cpu.dcache.ReadReq.missRate::cpu.data     0.002489                       # miss rate for ReadReq accesses (Ratio)
system.cpu.dcache.ReadReq.missRate::total     0.002489                       # miss rate for ReadReq accesses (Ratio)
system.cpu.dcache.ReadReq.avgMissLatency::cpu.data 44927.588111                       # average ReadReq miss latency ((Tick/Count))
system.cpu.dcache.ReadReq.avgMissLatency::total 44927.588111                       # average ReadReq miss latency ((Tick/Count))
system.cpu.dcache.ReadReq.mshrHits::cpu.data        85728                       # number of ReadReq MSHR hits (Count)
system.cpu.dcache.ReadReq.mshrHits::total        85728                       # number of ReadReq MSHR hits (Count)
system.cpu.dcache.ReadReq.mshrMisses::cpu.data        24758                       # number of ReadReq MSHR misses (Count)
system.cpu.dcache.ReadReq.mshrMisses::total        24758                       # number of ReadReq MSHR misses (Count)
system.cpu.dcache.ReadReq.mshrMissLatency::cpu.data   1331499500                       # number of ReadReq MSHR miss ticks (Tick)
system.cpu.dcache.ReadReq.mshrMissLatency::total   1331499500                       # number of ReadReq MSHR miss ticks (Tick)
system.cpu.dcache.ReadReq.mshrMissRate::cpu.data     0.000558                       # mshr miss rate for ReadReq accesses (Ratio)
system.cpu.dcache.ReadReq.mshrMissRate::total     0.000558                       # mshr miss rate for ReadReq accesses (Ratio)
system.cpu.dcache.ReadReq.avgMshrMissLatency::cpu.data 53780.575975                       # average ReadReq mshr miss latency ((Tick/Count))
system.cpu.dcache.ReadReq.avgMshrMissLatency::total 53780.575975                       # average ReadReq mshr miss latency ((Tick/Count))
system.cpu.dcache.StoreCondReq.hits::cpu.data          413                       # number of StoreCondReq hits (Count)
system.cpu.dcache.StoreCondReq.hits::total          413                       # number of StoreCondReq hits (Count)
system.cpu.dcache.StoreCondReq.accesses::cpu.data          413                       # number of StoreCondReq accesses(hits+misses) (Count)
system.cpu.dcache.StoreCondReq.accesses::total          413                       # number of StoreCondReq accesses(hits+misses) (Count)
system.cpu.dcache.WriteReq.hits::cpu.data     29327929                       # number of WriteReq hits (Count)
system.cpu.dcache.WriteReq.hits::total       29327929                       # number of WriteReq hits (Count)
system.cpu.dcache.WriteReq.misses::cpu.data       285925                       # number of WriteReq misses (Count)
system.cpu.dcache.WriteReq.misses::total       285925                       # number of WriteReq misses (Count)
system.cpu.dcache.WriteReq.missLatency::cpu.data  23234226978                       # number of WriteReq miss ticks (Tick)
system.cpu.dcache.WriteReq.missLatency::total  23234226978                       # number of WriteReq miss ticks (Tick)
system.cpu.dcache.WriteReq.accesses::cpu.data     29613854                       # number of WriteReq accesses(hits+misses) (Count)
system.cpu.dcache.WriteReq.accesses::total     29613854                       # number of WriteReq accesses(hits+misses) (Count)
system.cpu.dcache.WriteReq.missRate::cpu.data     0.009655                       # miss rate for WriteReq accesses (Ratio)
system.cpu.dcache.WriteReq.missRate::total     0.009655                       # miss rate for WriteReq accesses (Ratio)
system.cpu.dcache.WriteReq.avgMissLatency::cpu.data 81259.865272                       # average WriteReq miss latency ((Tick/Count))
system.cpu.dcache.WriteReq.avgMissLatency::total 81259.865272                       # average WriteReq miss latency ((Tick/Count))
system.cpu.dcache.WriteReq.mshrHits::cpu.data       258161                       # number of WriteReq MSHR hits (Count)
system.cpu.dcache.WriteReq.mshrHits::total       258161                       # number of WriteReq MSHR hits (Count)
system.cpu.dcache.WriteReq.mshrMisses::cpu.data        27764                       # number of WriteReq MSHR misses (Count)
system.cpu.dcache.WriteReq.mshrMisses::total        27764                       # number of WriteReq MSHR misses (Count)
system.cpu.dcache.WriteReq.mshrMissLatency::cpu.data   2320386492                       # number of WriteReq MSHR miss ticks (Tick)
system.cpu.dcache.WriteReq.mshrMissLatency::total   2320386492                       # number of WriteReq MSHR miss ticks (Tick)
system.cpu.dcache.WriteReq.mshrMissRate::cpu.data     0.000938                       # mshr miss rate for WriteReq accesses (Ratio)
system.cpu.dcache.WriteReq.mshrMissRate::total     0.000938                       # mshr miss rate for WriteReq accesses (Ratio)
system.cpu.dcache.WriteReq.avgMshrMissLatency::cpu.data 83575.367094                       # average WriteReq mshr miss latency ((Tick/Count))
system.cpu.dcache.WriteReq.avgMshrMissLatency::total 83575.367094                       # average WriteReq mshr miss latency ((Tick/Count))
system.cpu.dcache.power_state.pwrStateResidencyTicks::UNDEFINED  48875069500                       # Cumulative time (in ticks) in various power states (Tick)
system.cpu.dcache.tags.tagsInUse           511.038959                       # Average ticks per tags in use ((Tick/Count))
system.cpu.dcache.tags.totalRefs             73662160                       # Total number of references to valid blocks. (Count)
system.cpu.dcache.tags.sampledRefs              52520                       # Sample count of references to valid blocks. (Count)
system.cpu.dcache.tags.avgRefs            1402.554455                       # Average number of references to valid blocks. ((Count/Count))
system.cpu.dcache.tags.warmupTick              148500                       # The tick when the warmup percentage was hit. (Tick)
system.cpu.dcache.tags.occupancies::cpu.data   511.038959                       # Average occupied blocks per tick, per requestor ((Count/Tick))
system.cpu.dcache.tags.avgOccs::cpu.data     0.998123                       # Average percentage of cache occupancy ((Ratio/Tick))
system.cpu.dcache.tags.avgOccs::total        0.998123                       # Average percentage of cache occupancy ((Ratio/Tick))
system.cpu.dcache.tags.occupanciesTaskId::1024          512                       # Occupied blocks per task id (Count)
system.cpu.dcache.tags.ageTaskId_1024::0            2                       # Occupied blocks per task id, per block age (Count)
system.cpu.dcache.tags.ageTaskId_1024::1           20                       # Occupied blocks per task id, per block age (Count)
system.cpu.dcache.tags.ageTaskId_1024::2          204                       # Occupied blocks per task id, per block age (Count)
system.cpu.dcache.tags.ageTaskId_1024::3          159                       # Occupied blocks per task id, per block age (Count)
system.cpu.dcache.tags.ageTaskId_1024::4          127                       # Occupied blocks per task id, per block age (Count)
system.cpu.dcache.tags.ratioOccsTaskId::1024            1                       # Ratio of occupied blocks and all blocks, per task id (Ratio)
system.cpu.dcache.tags.tagAccesses          148064636                       # Number of tag accesses (Count)
system.cpu.dcache.tags.dataAccesses         148064636                       # Number of data accesses (Count)
system.cpu.dcache.tags.power_state.pwrStateResidencyTicks::UNDEFINED  48875069500                       # Cumulative time (in ticks) in various power states (Tick)
system.cpu.decode.idleCycles                 33544751                       # Number of cycles decode is idle (Cycle)
system.cpu.decode.blockedCycles              18796583                       # Number of cycles decode is blocked (Cycle)
system.cpu.decode.runCycles                  40431413                       # Number of cycles decode is running (Cycle)
system.cpu.decode.unblockCycles               4198019                       # Number of cycles decode is unblocking (Cycle)
system.cpu.decode.squashCycles                 691882                       # Number of cycles decode is squashing (Cycle)
system.cpu.decode.branchResolved             12796106                       # Number of times decode resolved a branch (Count)
system.cpu.decode.branchMispred                514838                       # Number of times decode detected a branch misprediction (Count)
system.cpu.decode.decodedInsts              258746926                       # Number of instructions handled by decode (Count)
system.cpu.decode.squashedInsts                 13659                       # Number of squashed instructions handled by decode (Count)
system.cpu.fetch.icacheStallCycles           42156607                       # Number of cycles fetch is stalled on an Icache miss (Cycle)
system.cpu.fetch.insts                      241225443                       # Number of instructions fetch has processed (Count)
system.cpu.fetch.branches                    45361621                       # Number of branches that fetch encountered (Count)
system.cpu.fetch.predictedBranches           17907974                       # Number of branches that fetch has predicted taken (Count)
system.cpu.fetch.cycles                      54298822                       # Number of cycles fetch has run and was not squashing or blocked (Cycle)
system.cpu.fetch.squashCycles                 2413070                       # Number of cycles fetch has spent squashing (Cycle)
system.cpu.fetch.miscStallCycles                  538                       # Number of cycles fetch has spent waiting on interrupts, or bad addresses, or out of MSHRs (Cycle)
system.cpu.fetch.pendingTrapStallCycles            73                       # Number of stall cycles due to pending traps (Cycle)
system.cpu.fetch.icacheWaitRetryStallCycles           73                       # Number of stall cycles due to full MSHR (Cycle)
system.cpu.fetch.cacheLines                  35232527                       # Number of cache lines fetched (Count)
system.cpu.fetch.icacheSquashes                589304                       # Number of outstanding Icache misses that were squashed (Count)
system.cpu.fetch.nisnDist::samples           97662648                       # Number of instructions fetched each cycle (Total) (Count)
system.cpu.fetch.nisnDist::mean              2.799159                       # Number of instructions fetched each cycle (Total) (Count)
system.cpu.fetch.nisnDist::stdev             3.365633                       # Number of instructions fetched each cycle (Total) (Count)
system.cpu.fetch.nisnDist::underflows               0      0.00%      0.00% # Number of instructions fetched each cycle (Total) (Count)
system.cpu.fetch.nisnDist::0                 48377956     49.54%     49.54% # Number of instructions fetched each cycle (Total) (Count)
system.cpu.fetch.nisnDist::1                  5537270      5.67%     55.21% # Number of instructions fetched each cycle (Total) (Count)
system.cpu.fetch.nisnDist::2                  5841391      5.98%     61.19% # Number of instructions fetched each cycle (Total) (Count)
system.cpu.fetch.nisnDist::3                  1672744      1.71%     62.90% # Number of instructions fetched each cycle (Total) (Count)
system.cpu.fetch.nisnDist::4                  4977599      5.10%     68.00% # Number of instructions fetched each cycle (Total) (Count)
system.cpu.fetch.nisnDist::5                  4246409      4.35%     72.34% # Number of instructions fetched each cycle (Total) (Count)
system.cpu.fetch.nisnDist::6                  2179588      2.23%     74.58% # Number of instructions fetched each cycle (Total) (Count)
system.cpu.fetch.nisnDist::7                  1722465      1.76%     76.34% # Number of instructions fetched each cycle (Total) (Count)
system.cpu.fetch.nisnDist::8                 23107226     23.66%    100.00% # Number of instructions fetched each cycle (Total) (Count)
system.cpu.fetch.nisnDist::overflows                0      0.00%    100.00% # Number of instructions fetched each cycle (Total) (Count)
system.cpu.fetch.nisnDist::min_value                0                       # Number of instructions fetched each cycle (Total) (Count)
system.cpu.fetch.nisnDist::max_value                8                       # Number of instructions fetched each cycle (Total) (Count)
system.cpu.fetch.nisnDist::total             97662648                       # Number of instructions fetched each cycle (Total) (Count)
system.cpu.fetch.branchRate                  0.464057                       # Number of branch fetches per cycle (Ratio)
system.cpu.fetch.rate                        2.467776                       # Number of inst fetches per cycle ((Count/Cycle))
system.cpu.icache.demandHits::cpu.inst       34969930                       # number of demand (read+write) hits (Count)
system.cpu.icache.demandHits::total          34969930                       # number of demand (read+write) hits (Count)
system.cpu.icache.overallHits::cpu.inst      34969930                       # number of overall hits (Count)
system.cpu.icache.overallHits::total         34969930                       # number of overall hits (Count)
system.cpu.icache.demandMisses::cpu.inst       262594                       # number of demand (read+write) misses (Count)
system.cpu.icache.demandMisses::total          262594                       # number of demand (read+write) misses (Count)
system.cpu.icache.overallMisses::cpu.inst       262594                       # number of overall misses (Count)
system.cpu.icache.overallMisses::total         262594                       # number of overall misses (Count)
system.cpu.icache.demandMissLatency::cpu.inst   3599178498                       # number of demand (read+write) miss ticks (Tick)
system.cpu.icache.demandMissLatency::total   3599178498                       # number of demand (read+write) miss ticks (Tick)
system.cpu.icache.overallMissLatency::cpu.inst   3599178498                       # number of overall miss ticks (Tick)
system.cpu.icache.overallMissLatency::total   3599178498                       # number of overall miss ticks (Tick)
system.cpu.icache.demandAccesses::cpu.inst     35232524                       # number of demand (read+write) accesses (Count)
system.cpu.icache.demandAccesses::total      35232524                       # number of demand (read+write) accesses (Count)
system.cpu.icache.overallAccesses::cpu.inst     35232524                       # number of overall (read+write) accesses (Count)
system.cpu.icache.overallAccesses::total     35232524                       # number of overall (read+write) accesses (Count)
system.cpu.icache.demandMissRate::cpu.inst     0.007453                       # miss rate for demand accesses (Ratio)
system.cpu.icache.demandMissRate::total      0.007453                       # miss rate for demand accesses (Ratio)
system.cpu.icache.overallMissRate::cpu.inst     0.007453                       # miss rate for overall accesses (Ratio)
system.cpu.icache.overallMissRate::total     0.007453                       # miss rate for overall accesses (Ratio)
system.cpu.icache.demandAvgMissLatency::cpu.inst 13706.248041                       # average overall miss latency in ticks ((Tick/Count))
system.cpu.icache.demandAvgMissLatency::total 13706.248041                       # average overall miss latency in ticks ((Tick/Count))
system.cpu.icache.overallAvgMissLatency::cpu.inst 13706.248041                       # average overall miss latency ((Tick/Count))
system.cpu.icache.overallAvgMissLatency::total 13706.248041                       # average overall miss latency ((Tick/Count))
system.cpu.icache.blockedCycles::no_mshrs         2258                       # number of cycles access was blocked (Cycle)
system.cpu.icache.blockedCycles::no_targets            0                       # number of cycles access was blocked (Cycle)
system.cpu.icache.blockedCauses::no_mshrs           23                       # number of times access was blocked (Count)
system.cpu.icache.blockedCauses::no_targets            0                       # number of times access was blocked (Count)
system.cpu.icache.avgBlocked::no_mshrs      98.173913                       # average number of cycles each access was blocked ((Cycle/Count))
system.cpu.icache.avgBlocked::no_targets          nan                       # average number of cycles each access was blocked ((Cycle/Count))
system.cpu.icache.demandMshrHits::cpu.inst          914                       # number of demand (read+write) MSHR hits (Count)
system.cpu.icache.demandMshrHits::total           914                       # number of demand (read+write) MSHR hits (Count)
system.cpu.icache.overallMshrHits::cpu.inst          914                       # number of overall MSHR hits (Count)
system.cpu.icache.overallMshrHits::total          914                       # number of overall MSHR hits (Count)
system.cpu.icache.demandMshrMisses::cpu.inst       261680                       # number of demand (read+write) MSHR misses (Count)
system.cpu.icache.demandMshrMisses::total       261680                       # number of demand (read+write) MSHR misses (Count)
system.cpu.icache.overallMshrMisses::cpu.inst       261680                       # number of overall MSHR misses (Count)
system.cpu.icache.overallMshrMisses::total       261680                       # number of overall MSHR misses (Count)
system.cpu.icache.demandMshrMissLatency::cpu.inst   3308823998                       # number of demand (read+write) MSHR miss ticks (Tick)
system.cpu.icache.demandMshrMissLatency::total   3308823998                       # number of demand (read+write) MSHR miss ticks (Tick)
system.cpu.icache.overallMshrMissLatency::cpu.inst   3308823998                       # number of overall MSHR miss ticks (Tick)
system.cpu.icache.overallMshrMissLatency::total   3308823998                       # number of overall MSHR miss ticks (Tick)
system.cpu.icache.demandMshrMissRate::cpu.inst     0.007427                       # mshr miss ratio for demand accesses (Ratio)
system.cpu.icache.demandMshrMissRate::total     0.007427                       # mshr miss ratio for demand accesses (Ratio)
system.cpu.icache.overallMshrMissRate::cpu.inst     0.007427                       # mshr miss ratio for overall accesses (Ratio)
system.cpu.icache.overallMshrMissRate::total     0.007427                       # mshr miss ratio for overall accesses (Ratio)
system.cpu.icache.demandAvgMshrMissLatency::cpu.inst 12644.542946                       # average overall mshr miss latency ((Tick/Count))
system.cpu.icache.demandAvgMshrMissLatency::total 12644.542946                       # average overall mshr miss latency ((Tick/Count))
system.cpu.icache.overallAvgMshrMissLatency::cpu.inst 12644.542946                       # average overall mshr miss latency ((Tick/Count))
system.cpu.icache.overallAvgMshrMissLatency::total 12644.542946                       # average overall mshr miss latency ((Tick/Count))
system.cpu.icache.replacements                 261172                       # number of replacements (Count)
system.cpu.icache.ReadReq.hits::cpu.inst     34969930                       # number of ReadReq hits (Count)
system.cpu.icache.ReadReq.hits::total        34969930                       # number of ReadReq hits (Count)
system.cpu.icache.ReadReq.misses::cpu.inst       262594                       # number of ReadReq misses (Count)
system.cpu.icache.ReadReq.misses::total        262594                       # number of ReadReq misses (Count)
system.cpu.icache.ReadReq.missLatency::cpu.inst   3599178498                       # number of ReadReq miss ticks (Tick)
system.cpu.icache.ReadReq.missLatency::total   3599178498                       # number of ReadReq miss ticks (Tick)
system.cpu.icache.ReadReq.accesses::cpu.inst     35232524                       # number of ReadReq accesses(hits+misses) (Count)
system.cpu.icache.ReadReq.accesses::total     35232524                       # number of ReadReq accesses(hits+misses) (Count)
system.cpu.icache.ReadReq.missRate::cpu.inst     0.007453                       # miss rate for ReadReq accesses (Ratio)
system.cpu.icache.ReadReq.missRate::total     0.007453                       # miss rate for ReadReq accesses (Ratio)
system.cpu.icache.ReadReq.avgMissLatency::cpu.inst 13706.248041                       # average ReadReq miss latency ((Tick/Count))
system.cpu.icache.ReadReq.avgMissLatency::total 13706.248041                       # average ReadReq miss latency ((Tick/Count))
system.cpu.icache.ReadReq.mshrHits::cpu.inst          914                       # number of ReadReq MSHR hits (Count)
system.cpu.icache.ReadReq.mshrHits::total          914                       # number of ReadReq MSHR hits (Count)
system.cpu.icache.ReadReq.mshrMisses::cpu.inst       261680                       # number of ReadReq MSHR misses (Count)
system.cpu.icache.ReadReq.mshrMisses::total       261680                       # number of ReadReq MSHR misses (Count)
system.cpu.icache.ReadReq.mshrMissLatency::cpu.inst   3308823998                       # number of ReadReq MSHR miss ticks (Tick)
system.cpu.icache.ReadReq.mshrMissLatency::total   3308823998                       # number of ReadReq MSHR miss ticks (Tick)
system.cpu.icache.ReadReq.mshrMissRate::cpu.inst     0.007427                       # mshr miss rate for ReadReq accesses (Ratio)
system.cpu.icache.ReadReq.mshrMissRate::total     0.007427                       # mshr miss rate for ReadReq accesses (Ratio)
system.cpu.icache.ReadReq.avgMshrMissLatency::cpu.inst 12644.542946                       # average ReadReq mshr miss latency ((Tick/Count))
system.cpu.icache.ReadReq.avgMshrMissLatency::total 12644.542946                       # average ReadReq mshr miss latency ((Tick/Count))
system.cpu.icache.power_state.pwrStateResidencyTicks::UNDEFINED  48875069500                       # Cumulative time (in ticks) in various power states (Tick)
system.cpu.icache.tags.tagsInUse           506.641463                       # Average ticks per tags in use ((Tick/Count))
system.cpu.icache.tags.totalRefs             35231610                       # Total number of references to valid blocks. (Count)
system.cpu.icache.tags.sampledRefs             261680                       # Sample count of references to valid blocks. (Count)
system.cpu.icache.tags.avgRefs             134.636235                       # Average number of references to valid blocks. ((Count/Count))
system.cpu.icache.tags.warmupTick               81500                       # The tick when the warmup percentage was hit. (Tick)
system.cpu.icache.tags.occupancies::cpu.inst   506.641463                       # Average occupied blocks per tick, per requestor ((Count/Tick))
system.cpu.icache.tags.avgOccs::cpu.inst     0.989534                       # Average percentage of cache occupancy ((Ratio/Tick))
system.cpu.icache.tags.avgOccs::total        0.989534                       # Average percentage of cache occupancy ((Ratio/Tick))
system.cpu.icache.tags.occupanciesTaskId::1024          507                       # Occupied blocks per task id (Count)
system.cpu.icache.tags.ageTaskId_1024::0            2                       # Occupied blocks per task id, per block age (Count)
system.cpu.icache.tags.ageTaskId_1024::1            5                       # Occupied blocks per task id, per block age (Count)
system.cpu.icache.tags.ageTaskId_1024::2            1                       # Occupied blocks per task id, per block age (Count)
system.cpu.icache.tags.ageTaskId_1024::3            3                       # Occupied blocks per task id, per block age (Count)
system.cpu.icache.tags.ageTaskId_1024::4          496                       # Occupied blocks per task id, per block age (Count)
system.cpu.icache.tags.ratioOccsTaskId::1024     0.990234                       # Ratio of occupied blocks and all blocks, per task id (Ratio)
system.cpu.icache.tags.tagAccesses           70726728                       # Number of tag accesses (Count)
system.cpu.icache.tags.dataAccesses          70726728                       # Number of data accesses (Count)
system.cpu.icache.tags.power_state.pwrStateResidencyTicks::UNDEFINED  48875069500                       # Cumulative time (in ticks) in various power states (Tick)
system.cpu.iew.idleCycles                           0                       # Number of cycles IEW is idle (Cycle)
system.cpu.iew.squashCycles                    691882                       # Number of cycles IEW is squashing (Cycle)
system.cpu.iew.blockCycles                    2331534                       # Number of cycles IEW is blocking (Cycle)
system.cpu.iew.unblockCycles                    30428                       # Number of cycles IEW is unblocking (Cycle)
system.cpu.iew.dispatchedInsts              248645871                       # Number of instructions dispatched to IQ (Count)
system.cpu.iew.dispSquashedInsts                 3542                       # Number of squashed instructions skipped by dispatch (Count)
system.cpu.iew.dispLoadInsts                 54267685                       # Number of dispatched load instructions (Count)
system.cpu.iew.dispStoreInsts                31589297                       # Number of dispatched store instructions (Count)
system.cpu.iew.dispNonSpecInsts                   753                       # Number of dispatched non-speculative instructions (Count)
system.cpu.iew.iqFullEvents                      1542                       # Number of times the IQ has become full, causing a stall (Count)
system.cpu.iew.lsqFullEvents                    28828                       # Number of times the LSQ has become full, causing a stall (Count)
system.cpu.iew.memOrderViolationEvents           4609                       # Number of memory order violations (Count)
system.cpu.iew.predictedTakenIncorrect         127865                       # Number of branches that were predicted taken incorrectly (Count)
system.cpu.iew.predictedNotTakenIncorrect       732104                       # Number of branches that were predicted not taken incorrectly (Count)
system.cpu.iew.branchMispredicts               859969                       # Number of branch mispredicts detected at execute (Count)
system.cpu.iew.instsToCommit                235665100                       # Cumulative count of insts sent to commit (Count)
system.cpu.iew.writebackCount               235485391                       # Cumulative count of insts written-back (Count)
system.cpu.iew.producerInst                 142387788                       # Number of instructions producing a value (Count)
system.cpu.iew.consumerInst                 250256811                       # Number of instructions consuming a value (Count)
system.cpu.iew.wbRate                        2.409054                       # Insts written-back per cycle ((Count/Cycle))
system.cpu.iew.wbFanout                      0.568967                       # Average fanout of values written-back ((Count/Count))
system.cpu.lsq0.forwLoads                     7116565                       # Number of loads that had data forwarded from stores (Count)
system.cpu.lsq0.squashedLoads                 4494533                       # Number of loads squashed (Count)
system.cpu.lsq0.ignoredResponses                 2060                       # Number of memory responses ignored because the instruction is squashed (Count)
system.cpu.lsq0.memOrderViolation                4609                       # Number of memory ordering violations (Count)
system.cpu.lsq0.squashedStores                1374992                       # Number of stores squashed (Count)
system.cpu.lsq0.rescheduledLoads              3729719                       # Number of loads that were rescheduled (Count)
system.cpu.lsq0.blockedByCache                     68                       # Number of times an access to memory failed due to the cache being blocked (Count)
system.cpu.lsq0.loadToUse::samples           49773152                       # Distribution of cycle latency between the first time a load is issued and its completion (Unspecified)
system.cpu.lsq0.loadToUse::mean              3.911236                       # Distribution of cycle latency between the first time a load is issued and its completion (Unspecified)
system.cpu.lsq0.loadToUse::stdev             6.762364                       # Distribution of cycle latency between the first time a load is issued and its completion (Unspecified)
system.cpu.lsq0.loadToUse::0-9               48053589     96.55%     96.55% # Distribution of cycle latency between the first time a load is issued and its completion (Unspecified)
system.cpu.lsq0.loadToUse::10-19               982666      1.97%     98.52% # Distribution of cycle latency between the first time a load is issued and its completion (Unspecified)
system.cpu.lsq0.loadToUse::20-29               581324      1.17%     99.69% # Distribution of cycle latency between the first time a load is issued and its completion (Unspecified)
system.cpu.lsq0.loadToUse::30-39                90055      0.18%     99.87% # Distribution of cycle latency between the first time a load is issued and its completion (Unspecified)
system.cpu.lsq0.loadToUse::40-49                 4263      0.01%     99.88% # Distribution of cycle latency between the first time a load is issued and its completion (Unspecified)
system.cpu.lsq0.loadToUse::50-59                 2159      0.00%     99.88% # Distribution of cycle latency between the first time a load is issued and its completion (Unspecified)
system.cpu.lsq0.loadToUse::60-69                 5490      0.01%     99.89% # Distribution of cycle latency between the first time a load is issued and its completion (Unspecified)
system.cpu.lsq0.loadToUse::70-79                10335      0.02%     99.91% # Distribution of cycle latency between the first time a load is issued and its completion (Unspecified)
system.cpu.lsq0.loadToUse::80-89                 4077      0.01%     99.92% # Distribution of cycle latency between the first time a load is issued and its completion (Unspecified)
system.cpu.lsq0.loadToUse::90-99                 1583      0.00%     99.92% # Distribution of cycle latency between the first time a load is issued and its completion (Unspecified)
system.cpu.lsq0.loadToUse::100-109                932      0.00%     99.93% # Distribution of cycle latency between the first time a load is issued and its completion (Unspecified)
system.cpu.lsq0.loadToUse::110-119                575      0.00%     99.93% # Distribution of cycle latency between the first time a load is issued and its completion (Unspecified)
system.cpu.lsq0.loadToUse::120-129               5484      0.01%     99.94% # Distribution of cycle latency between the first time a load is issued and its completion (Unspecified)
system.cpu.lsq0.loadToUse::130-139               8610      0.02%     99.96% # Distribution of cycle latency between the first time a load is issued and its completion (Unspecified)
system.cpu.lsq0.loadToUse::140-149                530      0.00%     99.96% # Distribution of cycle latency between the first time a load is issued and its completion (Unspecified)
system.cpu.lsq0.loadToUse::150-159                900      0.00%     99.96% # Distribution of cycle latency between the first time a load is issued and its completion (Unspecified)
system.cpu.lsq0.loadToUse::160-169                642      0.00%     99.96% # Distribution of cycle latency between the first time a load is issued and its completion (Unspecified)
system.cpu.lsq0.loadToUse::170-179                266      0.00%     99.96% # Distribution of cycle latency between the first time a load is issued and its completion (Unspecified)
[...]
system.mem_ctrl.dram.perBankRdBursts::7          1314                       # Per bank write bursts (Count)
system.mem_ctrl.dram.perBankRdBursts::8          1362                       # Per bank write bursts (Count)
system.mem_ctrl.dram.perBankRdBursts::9          1346                       # Per bank write bursts (Count)
system.mem_ctrl.dram.perBankRdBursts::10         1361                       # Per bank write bursts (Count)
system.mem_ctrl.dram.perBankRdBursts::11         1306                       # Per bank write bursts (Count)
system.mem_ctrl.dram.perBankRdBursts::12         1297                       # Per bank write bursts (Count)
system.mem_ctrl.dram.perBankRdBursts::13         1288                       # Per bank write bursts (Count)
system.mem_ctrl.dram.perBankRdBursts::14         1304                       # Per bank write bursts (Count)
system.mem_ctrl.dram.perBankRdBursts::15         1348                       # Per bank write bursts (Count)
system.mem_ctrl.dram.perBankRdBursts::16         1311                       # Per bank write bursts (Count)
system.mem_ctrl.dram.perBankRdBursts::17         1315                       # Per bank write bursts (Count)
system.mem_ctrl.dram.perBankRdBursts::18         1354                       # Per bank write bursts (Count)
system.mem_ctrl.dram.perBankRdBursts::19         1295                       # Per bank write bursts (Count)
system.mem_ctrl.dram.perBankRdBursts::20         1296                       # Per bank write bursts (Count)
system.mem_ctrl.dram.perBankRdBursts::21         1348                       # Per bank write bursts (Count)
system.mem_ctrl.dram.perBankRdBursts::22         1315                       # Per bank write bursts (Count)
system.mem_ctrl.dram.perBankRdBursts::23         1250                       # Per bank write bursts (Count)
system.mem_ctrl.dram.perBankRdBursts::24         1156                       # Per bank write bursts (Count)
system.mem_ctrl.dram.perBankRdBursts::25         1233                       # Per bank write bursts (Count)
system.mem_ctrl.dram.perBankRdBursts::26         1285                       # Per bank write bursts (Count)
system.mem_ctrl.dram.perBankRdBursts::27         1180                       # Per bank write bursts (Count)
system.mem_ctrl.dram.perBankRdBursts::28         1185                       # Per bank write bursts (Count)
system.mem_ctrl.dram.perBankRdBursts::29         1237                       # Per bank write bursts (Count)
system.mem_ctrl.dram.perBankRdBursts::30         1291                       # Per bank write bursts (Count)
system.mem_ctrl.dram.perBankRdBursts::31         1285                       # Per bank write bursts (Count)
system.mem_ctrl.dram.perBankWrBursts::0           710                       # Per bank write bursts (Count)
system.mem_ctrl.dram.perBankWrBursts::1           673                       # Per bank write bursts (Count)
system.mem_ctrl.dram.perBankWrBursts::2           646                       # Per bank write bursts (Count)
system.mem_ctrl.dram.perBankWrBursts::3           643                       # Per bank write bursts (Count)
system.mem_ctrl.dram.perBankWrBursts::4           768                       # Per bank write bursts (Count)
system.mem_ctrl.dram.perBankWrBursts::5           768                       # Per bank write bursts (Count)
system.mem_ctrl.dram.perBankWrBursts::6           768                       # Per bank write bursts (Count)
system.mem_ctrl.dram.perBankWrBursts::7           768                       # Per bank write bursts (Count)
system.mem_ctrl.dram.perBankWrBursts::8           768                       # Per bank write bursts (Count)
system.mem_ctrl.dram.perBankWrBursts::9           768                       # Per bank write bursts (Count)
system.mem_ctrl.dram.perBankWrBursts::10          768                       # Per bank write bursts (Count)
system.mem_ctrl.dram.perBankWrBursts::11          768                       # Per bank write bursts (Count)
system.mem_ctrl.dram.perBankWrBursts::12          768                       # Per bank write bursts (Count)
system.mem_ctrl.dram.perBankWrBursts::13          768                       # Per bank write bursts (Count)
system.mem_ctrl.dram.perBankWrBursts::14          768                       # Per bank write bursts (Count)
system.mem_ctrl.dram.perBankWrBursts::15          768                       # Per bank write bursts (Count)
system.mem_ctrl.dram.perBankWrBursts::16          768                       # Per bank write bursts (Count)
system.mem_ctrl.dram.perBankWrBursts::17          768                       # Per bank write bursts (Count)
system.mem_ctrl.dram.perBankWrBursts::18          768                       # Per bank write bursts (Count)
system.mem_ctrl.dram.perBankWrBursts::19          765                       # Per bank write bursts (Count)
system.mem_ctrl.dram.perBankWrBursts::20          768                       # Per bank write bursts (Count)
system.mem_ctrl.dram.perBankWrBursts::21          768                       # Per bank write bursts (Count)
system.mem_ctrl.dram.perBankWrBursts::22          768                       # Per bank write bursts (Count)
system.mem_ctrl.dram.perBankWrBursts::23          768                       # Per bank write bursts (Count)
system.mem_ctrl.dram.perBankWrBursts::24          768                       # Per bank write bursts (Count)
system.mem_ctrl.dram.perBankWrBursts::25          768                       # Per bank write bursts (Count)
system.mem_ctrl.dram.perBankWrBursts::26          802                       # Per bank write bursts (Count)
system.mem_ctrl.dram.perBankWrBursts::27          775                       # Per bank write bursts (Count)
system.mem_ctrl.dram.perBankWrBursts::28          768                       # Per bank write bursts (Count)
system.mem_ctrl.dram.perBankWrBursts::29          798                       # Per bank write bursts (Count)
system.mem_ctrl.dram.perBankWrBursts::30          835                       # Per bank write bursts (Count)
system.mem_ctrl.dram.perBankWrBursts::31          688                       # Per bank write bursts (Count)
system.mem_ctrl.dram.totQLat                893924286                       # Total ticks spent queuing (Tick)
system.mem_ctrl.dram.totBusLat              139580812                       # Total ticks spent in databus transfers (Tick)
system.mem_ctrl.dram.totMemAccLat          1626681658                       # Total ticks spent from burst creation until serviced by the DRAM (Tick)
system.mem_ctrl.dram.avgQLat                 21339.29                       # Average queueing delay per DRAM burst ((Tick/Count))
system.mem_ctrl.dram.avgBusLat                3332.00                       # Average bus latency per DRAM burst ((Tick/Count))
system.mem_ctrl.dram.avgMemAccLat            38831.29                       # Average memory access latency per DRAM burst ((Tick/Count))
system.mem_ctrl.dram.readRowHits                28522                       # Number of row buffer hits during reads (Count)
system.mem_ctrl.dram.writeRowHits               21711                       # Number of row buffer hits during writes (Count)
system.mem_ctrl.dram.readRowHitRate             68.09                       # Row buffer hit rate for reads (Ratio)
system.mem_ctrl.dram.writeRowHitRate            89.60                       # Row buffer hit rate for writes (Ratio)
system.mem_ctrl.dram.bytesPerActivate::samples        15888                       # Bytes accessed per row activation (Byte)
system.mem_ctrl.dram.bytesPerActivate::mean   266.348439                       # Bytes accessed per row activation (Byte)
system.mem_ctrl.dram.bytesPerActivate::gmean   170.472518                       # Bytes accessed per row activation (Byte)
system.mem_ctrl.dram.bytesPerActivate::stdev   303.803675                       # Bytes accessed per row activation (Byte)
system.mem_ctrl.dram.bytesPerActivate::0-127         3889     24.48%     24.48% # Bytes accessed per row activation (Byte)
system.mem_ctrl.dram.bytesPerActivate::128-255         8702     54.77%     79.25% # Bytes accessed per row activation (Byte)
system.mem_ctrl.dram.bytesPerActivate::256-383          338      2.13%     81.38% # Bytes accessed per row activation (Byte)
system.mem_ctrl.dram.bytesPerActivate::384-511          261      1.64%     83.02% # Bytes accessed per row activation (Byte)
system.mem_ctrl.dram.bytesPerActivate::512-639          517      3.25%     86.27% # Bytes accessed per row activation (Byte)
system.mem_ctrl.dram.bytesPerActivate::640-767          137      0.86%     87.13% # Bytes accessed per row activation (Byte)
system.mem_ctrl.dram.bytesPerActivate::768-895          109      0.69%     87.82% # Bytes accessed per row activation (Byte)
system.mem_ctrl.dram.bytesPerActivate::896-1023          191      1.20%     89.02% # Bytes accessed per row activation (Byte)
system.mem_ctrl.dram.bytesPerActivate::1024-1151         1744     10.98%    100.00% # Bytes accessed per row activation (Byte)
system.mem_ctrl.dram.bytesPerActivate::total        15888                       # Bytes accessed per row activation (Byte)
system.mem_ctrl.dram.bytesRead                2681024                       # Total bytes read (Byte)
system.mem_ctrl.dram.bytesWritten             1550784                       # Total bytes written (Byte)
system.mem_ctrl.dram.avgRdBW                54.854633                       # Average DRAM read bandwidth in MiBytes/s ((Byte/Second))
system.mem_ctrl.dram.avgWrBW                31.729551                       # Average DRAM write bandwidth in MiBytes/s ((Byte/Second))
system.mem_ctrl.dram.peakBW                  19207.00                       # Theoretical peak bandwidth in MiByte/s ((Byte/Second))
system.mem_ctrl.dram.busUtil                     0.45                       # Data bus utilization in percentage (Ratio)
system.mem_ctrl.dram.busUtilRead                 0.29                       # Data bus utilization in percentage for reads (Ratio)
system.mem_ctrl.dram.busUtilWrite                0.17                       # Data bus utilization in percentage for writes (Ratio)
system.mem_ctrl.dram.pageHitRate                75.97                       # Row buffer hit rate, read and write combined (Ratio)
system.mem_ctrl.dram.power_state.pwrStateResidencyTicks::UNDEFINED  48875069500                       # Cumulative time (in ticks) in various power states (Tick)
system.mem_ctrl.dram.rank0.actEnergy     24641259.552001                       # Energy for activate commands per rank (pJ) (Joule)
system.mem_ctrl.dram.rank0.preEnergy     32760238.660799                       # Energy for precharge commands per rank (pJ) (Joule)
system.mem_ctrl.dram.rank0.readEnergy    90667158.623994                       # Energy for read commands per rank (pJ) (Joule)
system.mem_ctrl.dram.rank0.writeEnergy   44681000.448000                       # Energy for write commands per rank (pJ) (Joule)
system.mem_ctrl.dram.rank0.refreshEnergy 8696015365.934845                       # Energy for refresh commands per rank (pJ) (Joule)
system.mem_ctrl.dram.rank0.actBackEnergy 16911025279.041882                       # Energy for active background per rank (pJ) (Joule)
system.mem_ctrl.dram.rank0.preBackEnergy 18911863331.559010                       # Energy for precharge background per rank (pJ) (Joule)
system.mem_ctrl.dram.rank0.actPowerDownEnergy            0                       # Energy for active power-down per rank (pJ) (Joule)
system.mem_ctrl.dram.rank0.prePowerDownEnergy            0                       # Energy for precharge power-down per rank (pJ) (Joule)
system.mem_ctrl.dram.rank0.selfRefreshEnergy            0                       # Energy for self refresh per rank (pJ) (Joule)
system.mem_ctrl.dram.rank0.totalEnergy   44711653633.820312                       # Total energy per rank (pJ) (Joule)
system.mem_ctrl.dram.rank0.averagePower    914.815142                       # Core power per rank (mW) (Watt)
system.mem_ctrl.dram.rank0.totalIdleTime            0                       # Total Idle time Per DRAM Rank (Tick)
system.mem_ctrl.dram.rank0.pwrStateTime::IDLE  28830676638                       # Time in different power states (Tick)
system.mem_ctrl.dram.rank0.pwrStateTime::REF   2196950000                       # Time in different power states (Tick)
system.mem_ctrl.dram.rank0.pwrStateTime::SREF            0                       # Time in different power states (Tick)
system.mem_ctrl.dram.rank0.pwrStateTime::PRE_PDN            0                       # Time in different power states (Tick)
system.mem_ctrl.dram.rank0.pwrStateTime::ACT  17847442862                       # Time in different power states (Tick)
system.mem_ctrl.dram.rank0.pwrStateTime::ACT_PDN            0                       # Time in different power states (Tick)
system.mem_ctrl.dram.rank1.actEnergy     24912590.976001                       # Energy for activate commands per rank (pJ) (Joule)
system.mem_ctrl.dram.rank1.preEnergy     33116823.969599                       # Energy for precharge commands per rank (pJ) (Joule)
system.mem_ctrl.dram.rank1.readEnergy    85539658.444795                       # Energy for read commands per rank (pJ) (Joule)
system.mem_ctrl.dram.rank1.writeEnergy   46391116.128000                       # Energy for write commands per rank (pJ) (Joule)
system.mem_ctrl.dram.rank1.refreshEnergy 8696015365.934845                       # Energy for refresh commands per rank (pJ) (Joule)
system.mem_ctrl.dram.rank1.actBackEnergy 18409350916.958736                       # Energy for active background per rank (pJ) (Joule)
system.mem_ctrl.dram.rank1.preBackEnergy 17760607474.176529                       # Energy for precharge background per rank (pJ) (Joule)
system.mem_ctrl.dram.rank1.actPowerDownEnergy            0                       # Energy for active power-down per rank (pJ) (Joule)
system.mem_ctrl.dram.rank1.prePowerDownEnergy            0                       # Energy for precharge power-down per rank (pJ) (Joule)
system.mem_ctrl.dram.rank1.selfRefreshEnergy            0                       # Energy for self refresh per rank (pJ) (Joule)
system.mem_ctrl.dram.rank1.totalEnergy   45055933946.588196                       # Total energy per rank (pJ) (Joule)
system.mem_ctrl.dram.rank1.averagePower    921.859230                       # Core power per rank (mW) (Watt)
system.mem_ctrl.dram.rank1.totalIdleTime            0                       # Total Idle time Per DRAM Rank (Tick)
system.mem_ctrl.dram.rank1.pwrStateTime::IDLE  27058422686                       # Time in different power states (Tick)
system.mem_ctrl.dram.rank1.pwrStateTime::REF   2196950000                       # Time in different power states (Tick)
system.mem_ctrl.dram.rank1.pwrStateTime::SREF            0                       # Time in different power states (Tick)
system.mem_ctrl.dram.rank1.pwrStateTime::PRE_PDN            0                       # Time in different power states (Tick)
system.mem_ctrl.dram.rank1.pwrStateTime::ACT  19619696814                       # Time in different power states (Tick)
system.mem_ctrl.dram.rank1.pwrStateTime::ACT_PDN            0                       # Time in different power states (Tick)
system.mem_ctrl.power_state.pwrStateResidencyTicks::UNDEFINED  48875069500                       # Cumulative time (in ticks) in various power states (Tick)
system.membus.transDist::ReadResp               14595                       # Transaction distribution (Count)
system.membus.transDist::WritebackDirty         24281                       # Transaction distribution (Count)
system.membus.transDist::CleanEvict             13005                       # Transaction distribution (Count)
system.membus.transDist::ReadExReq              27302                       # Transaction distribution (Count)
system.membus.transDist::ReadExResp             27302                       # Transaction distribution (Count)
system.membus.transDist::ReadSharedReq          14595                       # Transaction distribution (Count)
system.membus.pktCount_system.l2cache.mem_side_port::system.mem_ctrl.port       121080                       # Packet count per connected requestor and responder (Count)
system.membus.pktCount::total                  121080                       # Packet count per connected requestor and responder (Count)
system.membus.pktSize_system.l2cache.mem_side_port::system.mem_ctrl.port      4235392                       # Cumulative packet size per connected requestor and responder (Byte)
system.membus.pktSize::total                  4235392                       # Cumulative packet size per connected requestor and responder (Byte)
system.membus.snoops                                0                       # Total snoops (Count)
system.membus.snoopTraffic                          0                       # Total snoop traffic (Byte)
system.membus.snoopFanout::samples              41897                       # Request fanout histogram (Count)
system.membus.snoopFanout::mean                     0                       # Request fanout histogram (Count)
system.membus.snoopFanout::stdev                    0                       # Request fanout histogram (Count)
system.membus.snoopFanout::underflows               0      0.00%      0.00% # Request fanout histogram (Count)
system.membus.snoopFanout::0                    41897    100.00%    100.00% # Request fanout histogram (Count)
system.membus.snoopFanout::1                        0      0.00%    100.00% # Request fanout histogram (Count)
system.membus.snoopFanout::overflows                0      0.00%    100.00% # Request fanout histogram (Count)
system.membus.snoopFanout::min_value                0                       # Request fanout histogram (Count)
system.membus.snoopFanout::max_value                0                       # Request fanout histogram (Count)
system.membus.snoopFanout::total                41897                       # Request fanout histogram (Count)
system.membus.power_state.pwrStateResidencyTicks::UNDEFINED  48875069500                       # Cumulative time (in ticks) in various power states (Tick)
system.membus.reqLayer0.occupancy            88153500                       # Layer occupancy (ticks) (Tick)
system.membus.reqLayer0.utilization               0.0                       # Layer utilization (Ratio)
system.membus.respLayer0.occupancy          109933842                       # Layer occupancy (ticks) (Tick)
system.membus.respLayer0.utilization              0.0                       # Layer utilization (Ratio)
system.membus.snoop_filter.totRequests          79183                       # Total number of requests made to the snoop filter. (Count)
system.membus.snoop_filter.hitSingleRequests        37304                       # Number of requests hitting in the snoop filter with a single holder of the requested data. (Count)
system.membus.snoop_filter.hitMultiRequests            0                       # Number of requests hitting in the snoop filter with multiple (>1) holders of the requested data. (Count)
system.membus.snoop_filter.totSnoops                0                       # Total number of snoops made to the snoop filter. (Count)
system.membus.snoop_filter.hitSingleSnoops            0                       # Number of snoops hitting in the snoop filter with a single holder of the requested data. (Count)
system.membus.snoop_filter.hitMultiSnoops            0                       # Number of snoops hitting in the snoop filter with multiple (>1) holders of the requested data. (Count)
system.workload.inst.arm                            0                       # number of arm instructions executed (Count)
system.workload.inst.quiesce                        0                       # number of quiesce instructions executed (Count)

---------- End Simulation Statistics   ----------
