
---------- Begin Simulation Statistics ----------
simSeconds                                   0.049197                       # Number of seconds simulated (Second)
simTicks                                  49197248500                       # Number of ticks simulated (Tick)
finalTick                                 49197248500                       # Number of ticks from beginning of simulation (restored from checkpoints and never reset) (Tick)
simFreq                                  1000000000000                       # The number of ticks per simulated second ((Tick/Second))
hostSeconds                                    674.87                       # Real time elapsed on the host (Second)
hostTickRate                                 72899079                       # The number of ticks simulated per host second (ticks/s) ((Tick/Second))
hostMemory                                    2247172                       # Number of bytes of host memory used (Byte)
simInsts                                    200000006                       # Number of instructions simulated (Count)
simOps                                      227162985                       # Number of ops (including micro ops) simulated (Count)
hostInstRate                                   296354                       # Simulator instruction rate (inst/s) ((Count/Second))
hostOpRate                                     336604                       # Simulator op (including micro ops) rate (op/s) ((Count/Second))
system.clk_domain.clock                           500                       # Clock period in ticks (Tick)
system.clk_domain.voltage_domain.voltage            1                       # Voltage in Volts (Volt)
system.cpu.numCycles                         98394498                       # Number of cpu cycles simulated (Cycle)
system.cpu.numWorkItemsStarted                      0                       # Number of work items this cpu started (Count)
system.cpu.numWorkItemsCompleted                    0                       # Number of work items this cpu completed (Count)
system.cpu.instsAdded                       257316371                       # Number of instructions added to the IQ (excludes non-spec) (Count)
system.cpu.nonSpecInstsAdded                     1165                       # Number of non-speculative instructions added to the IQ (Count)
system.cpu.instsIssued                      242124911                       # Number of instructions issued (Count)
system.cpu.squashedInstsIssued                   2032                       # Number of squashed instructions issued (Count)
system.cpu.squashedInstsExamined             30154516                       # Number of squashed instructions iterated over during squash; mainly for profiling (Count)
system.cpu.squashedOperandsExamined          91245029                       # Number of squashed operands that are examined and possibly removed from graph (Count)
system.cpu.squashedNonSpecRemoved                 130                       # Number of squashed non-spec instructions that were removed (Count)
system.cpu.numIssuedDist::samples            98305247                       # Number of insts issued each cycle (Count)
system.cpu.numIssuedDist::mean               2.462991                       # Number of insts issued each cycle (Count)
system.cpu.numIssuedDist::stdev              1.934313                       # Number of insts issued each cycle (Count)
system.cpu.numIssuedDist::underflows                0      0.00%      0.00% # Number of insts issued each cycle (Count)
system.cpu.numIssuedDist::0                  15738497     16.01%     16.01% # Number of insts issued each cycle (Count)
system.cpu.numIssuedDist::1                  19879390     20.22%     36.23% # Number of insts issued each cycle (Count)
system.cpu.numIssuedDist::2                  20501302     20.85%     57.09% # Number of insts issued each cycle (Count)
system.cpu.numIssuedDist::3                  16475245     16.76%     73.85% # Number of insts issued each cycle (Count)
system.cpu.numIssuedDist::4                   9936565     10.11%     83.95% # Number of insts issued each cycle (Count)
system.cpu.numIssuedDist::5                   8244374      8.39%     92.34% # Number of insts issued each cycle (Count)
system.cpu.numIssuedDist::6                   3923982      3.99%     96.33% # Number of insts issued each cycle (Count)
system.cpu.numIssuedDist::7                   1541976      1.57%     97.90% # Number of insts issued each cycle (Count)
system.cpu.numIssuedDist::8                   2063916      2.10%    100.00% # Number of insts issued each cycle (Count)
system.cpu.numIssuedDist::overflows                 0      0.00%    100.00% # Number of insts issued each cycle (Count)
system.cpu.numIssuedDist::min_value                 0                       # Number of insts issued each cycle (Count)
system.cpu.numIssuedDist::max_value                 8                       # Number of insts issued each cycle (Count)
system.cpu.numIssuedDist::total              98305247                       # Number of insts issued each cycle (Count)
system.cpu.statFuBusy::No_OpClass                   0      0.00%      0.00% # attempts to use FU when none available (Count)
system.cpu.statFuBusy::IntAlu                  518898     16.61%     16.61% # attempts to use FU when none available (Count)
system.cpu.statFuBusy::IntMult                      0      0.00%     16.61% # attempts to use FU when none available (Count)
system.cpu.statFuBusy::IntDiv                       0      0.00%     16.61% # attempts to use FU when none available (Count)
system.cpu.statFuBusy::FloatAdd                     0      0.00%     16.61% # attempts to use FU when none available (Count)
system.cpu.statFuBusy::FloatCmp                     0      0.00%     16.61% # attempts to use FU when none available (Count)
system.cpu.statFuBusy::FloatCvt                     0      0.00%     16.61% # attempts to use FU when none available (Count)
system.cpu.statFuBusy::FloatMult                    0      0.00%     16.61% # attempts to use FU when none available (Count)
system.cpu.statFuBusy::FloatMultAcc                 0      0.00%     16.61% # attempts to use FU when none available (Count)
system.cpu.statFuBusy::FloatDiv                     0      0.00%     16.61% # attempts to use FU when none available (Count)
system.cpu.statFuBusy::FloatMisc                    0      0.00%     16.61% # attempts to use FU when none available (Count)
system.cpu.statFuBusy::FloatSqrt                    0      0.00%     16.61% # attempts to use FU when none available (Count)
system.cpu.statFuBusy::SimdAdd                      0      0.00%     16.61% # attempts to use FU when none available (Count)
system.cpu.statFuBusy::SimdAddAcc                   0      0.00%     16.61% # attempts to use FU when none available (Count)
system.cpu.statFuBusy::SimdAlu                      0      0.00%     16.61% # attempts to use FU when none available (Count)
system.cpu.statFuBusy::SimdCmp                      0      0.00%     16.61% # attempts to use FU when none available (Count)
system.cpu.statFuBusy::SimdCvt                      0      0.00%     16.61% # attempts to use FU when none available (Count)
system.cpu.statFuBusy::SimdMisc                     0      0.00%     16.61% # attempts to use FU when none available (Count)
system.cpu.statFuBusy::SimdMult                     0      0.00%     16.61% # attempts to use FU when none available (Count)
system.cpu.statFuBusy::SimdMultAcc                  0      0.00%     16.61% # attempts to use FU when none available (Count)
system.cpu.statFuBusy::SimdShift                    0      0.00%     16.61% # attempts to use FU when none available (Count)
system.cpu.statFuBusy::SimdShiftAcc                 0      0.00%     16.61% # attempts to use FU when none available (Count)
system.cpu.statFuBusy::SimdDiv                      0      0.00%     16.61% # attempts to use FU when none available (Count)
system.cpu.statFuBusy::SimdSqrt                     0      0.00%     16.61% # attempts to use FU when none available (Count)
system.cpu.statFuBusy::SimdFloatAdd                 0      0.00%     16.61% # attempts to use FU when none available (Count)
system.cpu.statFuBusy::SimdFloatAlu                 0      0.00%     16.61% # attempts to use FU when none available (Count)
system.cpu.statFuBusy::SimdFloatCmp                 0      0.00%     16.61% # attempts to use FU when none available (Count)
system.cpu.statFuBusy::SimdFloatCvt                 0      0.00%     16.61% # attempts to use FU when none available (Count)
system.cpu.statFuBusy::SimdFloatDiv                 0      0.00%     16.61% # attempts to use FU when none available (Count)
system.cpu.statFuBusy::SimdFloatMisc                0      0.00%     16.61% # attempts to use FU when none available (Count)
system.cpu.statFuBusy::SimdFloatMult                0      0.00%     16.61% # attempts to use FU when none available (Count)
system.cpu.statFuBusy::SimdFloatMultAcc             0      0.00%     16.61% # attempts to use FU when none available (Count)
system.cpu.statFuBusy::SimdFloatSqrt                0      0.00%     16.61% # attempts to use FU when none available (Count)
system.cpu.statFuBusy::SimdReduceAdd                0      0.00%     16.61% # attempts to use FU when none available (Count)
system.cpu.statFuBusy::SimdReduceAlu                0      0.00%     16.61% # attempts to use FU when none available (Count)
system.cpu.statFuBusy::SimdReduceCmp                0      0.00%     16.61% # attempts to use FU when none available (Count)
system.cpu.statFuBusy::SimdFloatReduceAdd            0      0.00%     16.61% # attempts to use FU when none available (Count)
system.cpu.statFuBusy::SimdFloatReduceCmp            0      0.00%     16.61% # attempts to use FU when none available (Count)
system.cpu.statFuBusy::SimdAes                      0      0.00%     16.61% # attempts to use FU when none available (Count)
system.cpu.statFuBusy::SimdAesMix                   0      0.00%     16.61% # attempts to use FU when none available (Count)
system.cpu.statFuBusy::SimdSha1Hash                 0      0.00%     16.61% # attempts to use FU when none available (Count)
system.cpu.statFuBusy::SimdSha1Hash2                0      0.00%     16.61% # attempts to use FU when none available (Count)
system.cpu.statFuBusy::SimdSha256Hash               0      0.00%     16.61% # attempts to use FU when none available (Count)
system.cpu.statFuBusy::SimdSha256Hash2              0      0.00%     16.61% # attempts to use FU when none available (Count)
system.cpu.statFuBusy::SimdShaSigma2                0      0.00%     16.61% # attempts to use FU when none available (Count)
system.cpu.statFuBusy::SimdShaSigma3                0      0.00%     16.61% # attempts to use FU when none available (Count)
system.cpu.statFuBusy::SimdPredAlu                  0      0.00%     16.61% # attempts to use FU when none available (Count)
system.cpu.statFuBusy::MemRead                1860697     59.55%     76.16% # attempts to use FU when none available (Count)
system.cpu.statFuBusy::MemWrite                744805     23.84%    100.00% # attempts to use FU when none available (Count)
system.cpu.statFuBusy::FloatMemRead                 0      0.00%    100.00% # attempts to use FU when none available (Count)
system.cpu.statFuBusy::FloatMemWrite                0      0.00%    100.00% # attempts to use FU when none available (Count)
system.cpu.statFuBusy::IprAccess                    0      0.00%    100.00% # attempts to use FU when none available (Count)
system.cpu.statFuBusy::InstPrefetch                 0      0.00%    100.00% # attempts to use FU when none available (Count)
system.cpu.statIssuedInstType_0::No_OpClass           24      0.00%      0.00% # Number of instructions issued per FU type, per thread (Count)
system.cpu.statIssuedInstType_0::IntAlu     153269991     63.30%     63.30% # Number of instructions issued per FU type, per thread (Count)
system.cpu.statIssuedInstType_0::IntMult      1145542      0.47%     63.78% # Number of instructions issued per FU type, per thread (Count)
system.cpu.statIssuedInstType_0::IntDiv             0      0.00%     63.78% # Number of instructions issued per FU type, per thread (Count)
system.cpu.statIssuedInstType_0::FloatAdd            0      0.00%     63.78% # Number of instructions issued per FU type, per thread (Count)
system.cpu.statIssuedInstType_0::FloatCmp            0      0.00%     63.78% # Number of instructions issued per FU type, per thread (Count)
system.cpu.statIssuedInstType_0::FloatCvt            0      0.00%     63.78% # Number of instructions issued per FU type, per thread (Count)
system.cpu.statIssuedInstType_0::FloatMult            0      0.00%     63.78% # Number of instructions issued per FU type, per thread (Count)
system.cpu.statIssuedInstType_0::FloatMultAcc            0      0.00%     63.78% # Number of instructions issued per FU type, per thread (Count)
system.cpu.statIssuedInstType_0::FloatDiv            0      0.00%     63.78% # Number of instructions issued per FU type, per thread (Count)
system.cpu.statIssuedInstType_0::FloatMisc            0      0.00%     63.78% # Number of instructions issued per FU type, per thread (Count)
system.cpu.statIssuedInstType_0::FloatSqrt            0      0.00%     63.78% # Number of instructions issued per FU type, per thread (Count)
system.cpu.statIssuedInstType_0::SimdAdd            0      0.00%     63.78% # Number of instructions issued per FU type, per thread (Count)
system.cpu.statIssuedInstType_0::SimdAddAcc            0      0.00%     63.78% # Number of instructions issued per FU type, per thread (Count)
system.cpu.statIssuedInstType_0::SimdAlu            0      0.00%     63.78% # Number of instructions issued per FU type, per thread (Count)
system.cpu.statIssuedInstType_0::SimdCmp            0      0.00%     63.78% # Number of instructions issued per FU type, per thread (Count)
system.cpu.statIssuedInstType_0::SimdCvt            0      0.00%     63.78% # Number of instructions issued per FU type, per thread (Count)
system.cpu.statIssuedInstType_0::SimdMisc            0      0.00%     63.78% # Number of instructions issued per FU type, per thread (Count)
system.cpu.statIssuedInstType_0::SimdMult            0      0.00%     63.78% # Number of instructions issued per FU type, per thread (Count)
system.cpu.statIssuedInstType_0::SimdMultAcc            0      0.00%     63.78% # Number of instructions issued per FU type, per thread (Count)
system.cpu.statIssuedInstType_0::SimdShift            0      0.00%     63.78% # Number of instructions issued per FU type, per thread (Count)
system.cpu.statIssuedInstType_0::SimdShiftAcc            0      0.00%     63.78% # Number of instructions issued per FU type, per thread (Count)
system.cpu.statIssuedInstType_0::SimdDiv            0      0.00%     63.78% # Number of instructions issued per FU type, per thread (Count)
system.cpu.statIssuedInstType_0::SimdSqrt            0      0.00%     63.78% # Number of instructions issued per FU type, per thread (Count)
system.cpu.statIssuedInstType_0::SimdFloatAdd            0      0.00%     63.78% # Number of instructions issued per FU type, per thread (Count)
system.cpu.statIssuedInstType_0::SimdFloatAlu            0      0.00%     63.78% # Number of instructions issued per FU type, per thread (Count)
system.cpu.statIssuedInstType_0::SimdFloatCmp            0      0.00%     63.78% # Number of instructions issued per FU type, per thread (Count)
system.cpu.statIssuedInstType_0::SimdFloatCvt            0      0.00%     63.78% # Number of instructions issued per FU type, per thread (Count)
system.cpu.statIssuedInstType_0::SimdFloatDiv            0      0.00%     63.78% # Number of instructions issued per FU type, per thread (Count)
system.cpu.statIssuedInstType_0::SimdFloatMisc            0      0.00%     63.78% # Number of instructions issued per FU type, per thread (Count)
system.cpu.statIssuedInstType_0::SimdFloatMult            0      0.00%     63.78% # Number of instructions issued per FU type, per thread (Count)
system.cpu.statIssuedInstType_0::SimdFloatMultAcc            0      0.00%     63.78% # Number of instructions issued per FU type, per thread (Count)
system.cpu.statIssuedInstType_0::SimdFloatSqrt            0      0.00%     63.78% # Number of instructions issued per FU type, per thread (Count)
system.cpu.statIssuedInstType_0::SimdReduceAdd            0      0.00%     63.78% # Number of instructions issued per FU type, per thread (Count)
system.cpu.statIssuedInstType_0::SimdReduceAlu            0      0.00%     63.78% # Number of instructions issued per FU type, per thread (Count)
system.cpu.statIssuedInstType_0::SimdReduceCmp            0      0.00%     63.78% # Number of instructions issued per FU type, per thread (Count)
system.cpu.statIssuedInstType_0::SimdFloatReduceAdd            0      0.00%     63.78% # Number of instructions issued per FU type, per thread (Count)
system.cpu.statIssuedInstType_0::SimdFloatReduceCmp            0      0.00%     63.78% # Number of instructions issued per FU type, per thread (Count)
system.cpu.statIssuedInstType_0::SimdAes            0      0.00%     63.78% # Number of instructions issued per FU type, per thread (Count)
system.cpu.statIssuedInstType_0::SimdAesMix            0      0.00%     63.78% # Number of instructions issued per FU type, per thread (Count)
system.cpu.statIssuedInstType_0::SimdSha1Hash            0      0.00%     63.78% # Number of instructions issued per FU type, per thread (Count)
system.cpu.statIssuedInstType_0::SimdSha1Hash2            0      0.00%     63.78% # Number of instructions issued per FU type, per thread (Count)
system.cpu.statIssuedInstType_0::SimdSha256Hash            0      0.00%     63.78% # Number of instructions issued per FU type, per thread (Count)
system.cpu.statIssuedInstType_0::SimdSha256Hash2            0      0.00%     63.78% # Number of instructions issued per FU type, per thread (Count)
system.cpu.statIssuedInstType_0::SimdShaSigma2            0      0.00%     63.78% # Number of instructions issued per FU type, per thread (Count)
system.cpu.statIssuedInstType_0::SimdShaSigma3            0      0.00%     63.78% # Number of instructions issued per FU type, per thread (Count)
system.cpu.statIssuedInstType_0::SimdPredAlu            0      0.00%     63.78% # Number of instructions issued per FU type, per thread (Count)
system.cpu.statIssuedInstType_0::MemRead     56500160     23.34%     87.11% # Number of instructions issued per FU type, per thread (Count)
system.cpu.statIssuedInstType_0::MemWrite     31209194     12.89%    100.00% # Number of instructions issued per FU type, per thread (Count)
system.cpu.statIssuedInstType_0::FloatMemRead            0      0.00%    100.00% # Number of instructions issued per FU type, per thread (Count)
system.cpu.statIssuedInstType_0::FloatMemWrite            0      0.00%    100.00% # Number of instructions issued per FU type, per thread (Count)
system.cpu.statIssuedInstType_0::IprAccess            0      0.00%    100.00% # Number of instructions issued per FU type, per thread (Count)
system.cpu.statIssuedInstType_0::InstPrefetch            0      0.00%    100.00% # Number of instructions issued per FU type, per thread (Count)
system.cpu.statIssuedInstType_0::total      242124911                       # Number of instructions issued per FU type, per thread (Count)
system.cpu.issueRate                         2.460757                       # Inst issue rate ((Count/Cycle))
system.cpu.fuBusy                             3124400                       # FU busy when requested (Count)
system.cpu.fuBusyRate                        0.012904                       # FU busy rate (busy events/executed inst) ((Count/Count))
system.cpu.intInstQueueReads                585681500                       # Number of integer instruction queue reads (Count)
system.cpu.intInstQueueWrites               287476827                       # Number of integer instruction queue writes (Count)
system.cpu.intInstQueueWakeupAccesses       235252597                       # Number of integer instruction queue wakeup accesses (Count)
system.cpu.fpInstQueueReads                         0                       # Number of floating instruction queue reads (Count)
system.cpu.fpInstQueueWrites                        0                       # Number of floating instruction queue writes (Count)
system.cpu.fpInstQueueWakeupAccesses                0                       # Number of floating instruction queue wakeup accesses (Count)
system.cpu.vecInstQueueReads                        0                       # Number of vector instruction queue reads (Count)
system.cpu.vecInstQueueWrites                       0                       # Number of vector instruction queue writes (Count)
system.cpu.vecInstQueueWakeupAccesses               0                       # Number of vector instruction queue wakeup accesses (Count)
system.cpu.intAluAccesses                   245249287                       # Number of integer alu accesses (Count)
system.cpu.fpAluAccesses                            0                       # Number of floating point alu accesses (Count)
system.cpu.vecAluAccesses                           0                       # Number of vector alu accesses (Count)
system.cpu.numInsts                         239864524                       # Number of executed instructions (Count)
system.cpu.numLoadInsts                      55670590                       # Number of load instructions executed (Count)
system.cpu.numSquashedInsts                   2260386                       # Number of squashed instructions skipped in execute (Count)
system.cpu.numSwp                                   0                       # Number of swp insts executed (Count)
system.cpu.numNop                                   0                       # Number of nop insts executed (Count)
system.cpu.numRefs                           86400680                       # Number of memory reference insts executed (Count)
system.cpu.numBranches                       38734423                       # Number of branches executed (Count)
system.cpu.numStoreInsts                     30730090                       # Number of stores executed (Count)
system.cpu.numRate                           2.437784                       # Inst execution rate ((Count/Cycle))
system.cpu.timesIdled                            2962                       # Number of times that the entire CPU went into an idle state and unscheduled itself (Count)
system.cpu.idleCycles                           89251                       # Total number of cycles that the CPU has spent unscheduled due to idling (Cycle)
system.cpu.committedInsts                   200000006                       # Number of Instructions Simulated (Count)
system.cpu.committedOps                     227162985                       # Number of Ops (including micro ops) Simulated (Count)
system.cpu.cpi                               0.491972                       # CPI: Cycles Per Instruction ((Cycle/Count))
system.cpu.totalCpi                          0.491972                       # CPI: Total CPI of All Threads ((Cycle/Count))
system.cpu.ipc                               2.032634                       # IPC: Instructions Per Cycle ((Count/Cycle))
system.cpu.totalIpc                          2.032634                       # IPC: Total IPC of All Threads ((Count/Cycle))
system.cpu.intRegfileReads                  273858306                       # Number of integer regfile reads (Count)
system.cpu.intRegfileWrites                 139936973                       # Number of integer regfile writes (Count)
system.cpu.vecRegfileReads                         16                       # number of vector regfile reads (Count)
system.cpu.ccRegfileReads                   872018731                       # number of cc regfile reads (Count)
system.cpu.ccRegfileWrites                  121218489                       # number of cc regfile writes (Count)
system.cpu.miscRegfileReads                  81541162                       # number of misc regfile reads (Count)
system.cpu.miscRegfileWrites                     1653                       # number of misc regfile writes (Count)
system.cpu.MemDepUnit__0.insertedLoads       55925758                       # Number of loads inserted to the mem dependence unit. (Count)
system.cpu.MemDepUnit__0.insertedStores      32356537                       # Number of stores inserted to the mem dependence unit. (Count)
system.cpu.MemDepUnit__0.conflictingLoads      9695806                       # Number of conflicting loads. (Count)
system.cpu.MemDepUnit__0.conflictingStores      5407495                       # Number of conflicting stores. (Count)
system.cpu.MemDepUnit__1.insertedLoads              0                       # Number of loads inserted to the mem dependence unit. (Count)
system.cpu.MemDepUnit__1.insertedStores             0                       # Number of stores inserted to the mem dependence unit. (Count)
system.cpu.MemDepUnit__1.conflictingLoads            0                       # Number of conflicting loads. (Count)
system.cpu.MemDepUnit__1.conflictingStores            0                       # Number of conflicting stores. (Count)
system.cpu.MemDepUnit__2.insertedLoads              0                       # Number of loads inserted to the mem dependence unit. (Count)
system.cpu.MemDepUnit__2.insertedStores             0                       # Number of stores inserted to the mem dependence unit. (Count)
system.cpu.MemDepUnit__2.conflictingLoads            0                       # Number of conflicting loads. (Count)
system.cpu.MemDepUnit__2.conflictingStores            0                       # Number of conflicting stores. (Count)
system.cpu.MemDepUnit__3.insertedLoads              0                       # Number of loads inserted to the mem dependence unit. (Count)
system.cpu.MemDepUnit__3.insertedStores             0                       # Number of stores inserted to the mem dependence unit. (Count)
system.cpu.MemDepUnit__3.conflictingLoads            0                       # Number of conflicting loads. (Count)
system.cpu.MemDepUnit__3.conflictingStores            0                       # Number of conflicting stores. (Count)
system.cpu.branchPred.lookups                48013147                       # Number of BP lookups (Count)
system.cpu.branchPred.condPredicted          36459519                       # Number of conditional branches predicted (Count)
system.cpu.branchPred.condIncorrect           1450730                       # Number of conditional branches incorrect (Count)
system.cpu.branchPred.BTBLookups             14995589                       # Number of BTB lookups (Count)
system.cpu.branchPred.BTBHits                12804385                       # Number of BTB hits (Count)
system.cpu.branchPred.BTBHitRatio            0.853877                       # BTB Hit Ratio (Ratio)
system.cpu.branchPred.RASUsed                 5167643                       # Number of times the RAS was used to get a target. (Count)
system.cpu.branchPred.RASIncorrect               1333                       # Number of incorrect RAS predictions. (Count)
system.cpu.branchPred.indirectLookups          518298                       # Number of indirect predictor lookups. (Count)
system.cpu.branchPred.indirectHits             515509                       # Number of indirect target hits. (Count)
system.cpu.branchPred.indirectMisses             2789                       # Number of indirect misses. (Count)
system.cpu.branchPred.indirectMispredicted          546                       # Number of mispredicted indirect branches. (Count)
system.cpu.commit.commitSquashedInsts        30133009                       # The number of squashed insts skipped by commit (Count)
system.cpu.commit.commitNonSpecStalls            1035                       # The number of times commit has been forced to stall to communicate backwards (Count)
system.cpu.commit.branchMispredicts            936102                       # The number of times a branch was mispredicted (Count)
system.cpu.commit.numCommittedDist::samples     94155606                       # Number of insts commited each cycle (Count)
system.cpu.commit.numCommittedDist::mean     2.412634                       # Number of insts commited each cycle (Count)
system.cpu.commit.numCommittedDist::stdev     2.746378                       # Number of insts commited each cycle (Count)
system.cpu.commit.numCommittedDist::underflows            0      0.00%      0.00% # Number of insts commited each cycle (Count)
system.cpu.commit.numCommittedDist::0        24352380     25.86%     25.86% # Number of insts commited each cycle (Count)
system.cpu.commit.numCommittedDist::1        28192762     29.94%     55.81% # Number of insts commited each cycle (Count)
system.cpu.commit.numCommittedDist::2        14411129     15.31%     71.11% # Number of insts commited each cycle (Count)
system.cpu.commit.numCommittedDist::3         3536289      3.76%     74.87% # Number of insts commited each cycle (Count)
system.cpu.commit.numCommittedDist::4         4756365      5.05%     79.92% # Number of insts commited each cycle (Count)
system.cpu.commit.numCommittedDist::5         2190803      2.33%     82.25% # Number of insts commited each cycle (Count)
system.cpu.commit.numCommittedDist::6         1198822      1.27%     83.52% # Number of insts commited each cycle (Count)
system.cpu.commit.numCommittedDist::7         1769757      1.88%     85.40% # Number of insts commited each cycle (Count)
system.cpu.commit.numCommittedDist::8        13747299     14.60%    100.00% # Number of insts commited each cycle (Count)
system.cpu.commit.numCommittedDist::overflows            0      0.00%    100.00% # Number of insts commited each cycle (Count)
system.cpu.commit.numCommittedDist::min_value            0                       # Number of insts commited each cycle (Count)
system.cpu.commit.numCommittedDist::max_value            8                       # Number of insts commited each cycle (Count)
system.cpu.commit.numCommittedDist::total     94155606                       # Number of insts commited each cycle (Count)
system.cpu.commit.instsCommitted            200000006                       # Number of instructions committed (Count)
system.cpu.commit.opsCommitted              227162985                       # Number of ops (including micro ops) committed (Count)
system.cpu.commit.memRefs                    79987457                       # Number of memory references committed (Count)
system.cpu.commit.loads                      49773152                       # Number of loads committed (Count)
system.cpu.commit.amos                              0                       # Number of atomic instructions committed (Count)
system.cpu.commit.membars                         417                       # Number of memory barriers committed (Count)
system.cpu.commit.branches                   37456961                       # Number of branches committed (Count)
system.cpu.commit.vectorInstructions                0                       # Number of committed Vector instructions. (Count)
system.cpu.commit.floating                          0                       # Number of committed floating point instructions. (Count)
system.cpu.commit.integer                   197759243                       # Number of committed integer instructions. (Count)
system.cpu.commit.functionCalls               3769269                       # Number of function calls committed. (Count)
system.cpu.commit.committedInstType_0::No_OpClass            0      0.00%      0.00% # Class of committed instruction (Count)
system.cpu.commit.committedInstType_0::IntAlu    146071351     64.30%     64.30% # Class of committed instruction (Count)
system.cpu.commit.committedInstType_0::IntMult      1104177      0.49%     64.79% # Class of committed instruction (Count)
system.cpu.commit.committedInstType_0::IntDiv            0      0.00%     64.79% # Class of committed instruction (Count)
system.cpu.commit.committedInstType_0::FloatAdd            0      0.00%     64.79% # Class of committed instruction (Count)
system.cpu.commit.committedInstType_0::FloatCmp            0      0.00%     64.79% # Class of committed instruction (Count)
system.cpu.commit.committedInstType_0::FloatCvt            0      0.00%     64.79% # Class of committed instruction (Count)
system.cpu.commit.committedInstType_0::FloatMult            0      0.00%     64.79% # Class of committed instruction (Count)
system.cpu.commit.committedInstType_0::FloatMultAcc            0      0.00%     64.79% # Class of committed instruction (Count)
system.cpu.commit.committedInstType_0::FloatDiv            0      0.00%     64.79% # Class of committed instruction (Count)
system.cpu.commit.committedInstType_0::FloatMisc            0      0.00%     64.79% # Class of committed instruction (Count)
system.cpu.commit.committedInstType_0::FloatSqrt            0      0.00%     64.79% # Class of committed instruction (Count)
system.cpu.commit.committedInstType_0::SimdAdd            0      0.00%     64.79% # Class of committed instruction (Count)
system.cpu.commit.committedInstType_0::SimdAddAcc            0      0.00%     64.79% # Class of committed instruction (Count)
system.cpu.commit.committedInstType_0::SimdAlu            0      0.00%     64.79% # Class of committed instruction (Count)
system.cpu.commit.committedInstType_0::SimdCmp            0      0.00%     64.79% # Class of committed instruction (Count)
system.cpu.commit.committedInstType_0::SimdCvt            0      0.00%     64.79% # Class of committed instruction (Count)
system.cpu.commit.committedInstType_0::SimdMisc            0      0.00%     64.79% # Class of committed instruction (Count)
system.cpu.commit.committedInstType_0::SimdMult            0      0.00%     64.79% # Class of committed instruction (Count)
system.cpu.commit.committedInstType_0::SimdMultAcc            0      0.00%     64.79% # Class of committed instruction (Count)
system.cpu.commit.committedInstType_0::SimdShift            0      0.00%     64.79% # Class of committed instruction (Count)
system.cpu.commit.committedInstType_0::SimdShiftAcc            0      0.00%     64.79% # Class of committed instruction (Count)
system.cpu.commit.committedInstType_0::SimdDiv            0      0.00%     64.79% # Class of committed instruction (Count)
system.cpu.commit.committedInstType_0::SimdSqrt            0      0.00%     64.79% # Class of committed instruction (Count)
system.cpu.commit.committedInstType_0::SimdFloatAdd            0      0.00%     64.79% # Class of committed instruction (Count)
system.cpu.commit.committedInstType_0::SimdFloatAlu            0      0.00%     64.79% # Class of committed instruction (Count)
system.cpu.commit.committedInstType_0::SimdFloatCmp            0      0.00%     64.79% # Class of committed instruction (Count)
system.cpu.commit.committedInstType_0::SimdFloatCvt            0      0.00%     64.79% # Class of committed instruction (Count)
system.cpu.commit.committedInstType_0::SimdFloatDiv            0      0.00%     64.79% # Class of committed instruction (Count)
system.cpu.commit.committedInstType_0::SimdFloatMisc            0      0.00%     64.79% # Class of committed instruction (Count)
system.cpu.commit.committedInstType_0::SimdFloatMult            0      0.00%     64.79% # Class of committed instruction (Count)
system.cpu.commit.committedInstType_0::SimdFloatMultAcc            0      0.00%     64.79% # Class of committed instruction (Count)
system.cpu.commit.committedInstType_0::SimdFloatSqrt            0      0.00%     64.79% # Class of committed instruction (Count)
system.cpu.commit.committedInstType_0::SimdReduceAdd            0      0.00%     64.79% # Class of committed instruction (Count)
system.cpu.commit.committedInstType_0::SimdReduceAlu            0      0.00%     64.79% # Class of committed instruction (Count)
system.cpu.commit.committedInstType_0::SimdReduceCmp            0      0.00%     64.79% # Class of committed instruction (Count)
system.cpu.commit.committedInstType_0::SimdFloatReduceAdd            0      0.00%     64.79% # Class of committed instruction (Count)
system.cpu.commit.committedInstType_0::SimdFloatReduceCmp            0      0.00%     64.79% # Class of committed instruction (Count)
system.cpu.commit.committedInstType_0::SimdAes            0      0.00%     64.79% # Class of committed instruction (Count)
system.cpu.commit.committedInstType_0::SimdAesMix            0      0.00%     64.79% # Class of committed instruction (Count)
system.cpu.commit.committedInstType_0::SimdSha1Hash            0      0.00%     64.79% # Class of committed instruction (Count)
system.cpu.commit.committedInstType_0::SimdSha1Hash2            0      0.00%     64.79% # Class of committed instruction (Count)
system.cpu.commit.committedInstType_0::SimdSha256Hash            0      0.00%     64.79% # Class of committed instruction (Count)
system.cpu.commit.committedInstType_0::SimdSha256Hash2            0      0.00%     64.79% # Class of committed instruction (Count)
system.cpu.commit.committedInstType_0::SimdShaSigma2            0      0.00%     64.79% # Class of committed instruction (Count)
system.cpu.commit.committedInstType_0::SimdShaSigma3            0      0.00%     64.79% # Class of committed instruction (Count)
system.cpu.commit.committedInstType_0::SimdPredAlu            0      0.00%     64.79% # Class of committed instruction (Count)
system.cpu.commit.committedInstType_0::MemRead     49773152     21.91%     86.70% # Class of committed instruction (Count)
system.cpu.commit.committedInstType_0::MemWrite     30214305     13.30%    100.00% # Class of committed instruction (Count)
system.cpu.commit.committedInstType_0::FloatMemRead            0      0.00%    100.00% # Class of committed instruction (Count)
system.cpu.commit.committedInstType_0::FloatMemWrite            0      0.00%    100.00% # Class of committed instruction (Count)
system.cpu.commit.committedInstType_0::IprAccess            0      0.00%    100.00% # Class of committed instruction (Count)
system.cpu.commit.committedInstType_0::InstPrefetch            0      0.00%    100.00% # Class of committed instruction (Count)
system.cpu.commit.committedInstType_0::total    227162985                       # Class of committed instruction (Count)
system.cpu.commit.commitEligibleSamples      13747299                       # number cycles where commit BW limit reached (Cycle)
system.cpu.dcache.demandHits::cpu.data       74332053                       # number of demand (read+write) hits (Count)
system.cpu.dcache.demandHits::total          74332053                       # number of demand (read+write) hits (Count)
system.cpu.dcache.overallHits::cpu.data      74332053                       # number of overall hits (Count)
system.cpu.dcache.overallHits::total         74332053                       # number of overall hits (Count)
system.cpu.dcache.demandMisses::cpu.data       397206                       # number of demand (read+write) misses (Count)
system.cpu.dcache.demandMisses::total          397206                       # number of demand (read+write) misses (Count)
system.cpu.dcache.overallMisses::cpu.data       397206                       # number of overall misses (Count)
system.cpu.dcache.overallMisses::total         397206                       # number of overall misses (Count)
system.cpu.dcache.demandMissLatency::cpu.data  28306421481                       # number of demand (read+write) miss ticks (Tick)
system.cpu.dcache.demandMissLatency::total  28306421481                       # number of demand (read+write) miss ticks (Tick)
system.cpu.dcache.overallMissLatency::cpu.data  28306421481                       # number of overall miss ticks (Tick)
system.cpu.dcache.overallMissLatency::total  28306421481                       # number of overall miss ticks (Tick)
system.cpu.dcache.demandAccesses::cpu.data     74729259                       # number of demand (read+write) accesses (Count)
system.cpu.dcache.demandAccesses::total      74729259                       # number of demand (read+write) accesses (Count)
system.cpu.dcache.overallAccesses::cpu.data     74729259                       # number of overall (read+write) accesses (Count)
system.cpu.dcache.overallAccesses::total     74729259                       # number of overall (read+write) accesses (Count)
system.cpu.dcache.demandMissRate::cpu.data     0.005315                       # miss rate for demand accesses (Ratio)
system.cpu.dcache.demandMissRate::total      0.005315                       # miss rate for demand accesses (Ratio)
system.cpu.dcache.overallMissRate::cpu.data     0.005315                       # miss rate for overall accesses (Ratio)
system.cpu.dcache.overallMissRate::total     0.005315                       # miss rate for overall accesses (Ratio)
system.cpu.dcache.demandAvgMissLatency::cpu.data 71263.831566                       # average overall miss latency in ticks ((Tick/Count))
system.cpu.dcache.demandAvgMissLatency::total 71263.831566                       # average overall miss latency in ticks ((Tick/Count))
system.cpu.dcache.overallAvgMissLatency::cpu.data 71263.831566                       # average overall miss latency ((Tick/Count))
system.cpu.dcache.overallAvgMissLatency::total 71263.831566                       # average overall miss latency ((Tick/Count))
system.cpu.dcache.blockedCycles::no_mshrs         3241                       # number of cycles access was blocked (Cycle)
system.cpu.dcache.blockedCycles::no_targets          450                       # number of cycles access was blocked (Cycle)
system.cpu.dcache.blockedCauses::no_mshrs           94                       # number of times access was blocked (Count)
system.cpu.dcache.blockedCauses::no_targets            4                       # number of times access was blocked (Count)
system.cpu.dcache.avgBlocked::no_mshrs      34.478723                       # average number of cycles each access was blocked ((Cycle/Count))
system.cpu.dcache.avgBlocked::no_targets   112.500000                       # average number of cycles each access was blocked ((Cycle/Count))
system.cpu.dcache.writebacks::writebacks        31723                       # number of writebacks (Count)
system.cpu.dcache.writebacks::total             31723                       # number of writebacks (Count)
system.cpu.dcache.demandMshrHits::cpu.data       344203                       # number of demand (read+write) MSHR hits (Count)
system.cpu.dcache.demandMshrHits::total        344203                       # number of demand (read+write) MSHR hits (Count)
system.cpu.dcache.overallMshrHits::cpu.data       344203                       # number of overall MSHR hits (Count)
system.cpu.dcache.overallMshrHits::total       344203                       # number of overall MSHR hits (Count)
system.cpu.dcache.demandMshrMisses::cpu.data        53003                       # number of demand (read+write) MSHR misses (Count)
system.cpu.dcache.demandMshrMisses::total        53003                       # number of demand (read+write) MSHR misses (Count)
system.cpu.dcache.overallMshrMisses::cpu.data        53003                       # number of overall MSHR misses (Count)
system.cpu.dcache.overallMshrMisses::total        53003                       # number of overall MSHR misses (Count)
system.cpu.dcache.demandMshrMissLatency::cpu.data   3649764993                       # number of demand (read+write) MSHR miss ticks (Tick)
system.cpu.dcache.demandMshrMissLatency::total   3649764993                       # number of demand (read+write) MSHR miss ticks (Tick)
system.cpu.dcache.overallMshrMissLatency::cpu.data   3649764993                       # number of overall MSHR miss ticks (Tick)
system.cpu.dcache.overallMshrMissLatency::total   3649764993                       # number of overall MSHR miss ticks (Tick)
system.cpu.dcache.demandMshrMissRate::cpu.data     0.000709                       # mshr miss ratio for demand accesses (Ratio)
system.cpu.dcache.demandMshrMissRate::total     0.000709                       # mshr miss ratio for demand accesses (Ratio)
system.cpu.dcache.overallMshrMissRate::cpu.data     0.000709                       # mshr miss ratio for overall accesses (Ratio)
system.cpu.dcache.overallMshrMissRate::total     0.000709                       # mshr miss ratio for overall accesses (Ratio)
system.cpu.dcache.demandAvgMshrMissLatency::cpu.data 68859.592721                       # average overall mshr miss latency ((Tick/Count))
system.cpu.dcache.demandAvgMshrMissLatency::total 68859.592721                       # average overall mshr miss latency ((Tick/Count))
system.cpu.dcache.overallAvgMshrMissLatency::cpu.data 68859.592721                       # average overall mshr miss latency ((Tick/Count))
system.cpu.dcache.overallAvgMshrMissLatency::total 68859.592721                       # average overall mshr miss latency ((Tick/Count))
system.cpu.dcache.replacements                  52488                       # number of replacements (Count)
system.cpu.dcache.LoadLockedReq.hits::cpu.data          422                       # number of LoadLockedReq hits (Count)
system.cpu.dcache.LoadLockedReq.hits::total          422                       # number of LoadLockedReq hits (Count)
system.cpu.dcache.LoadLockedReq.misses::cpu.data           13                       # number of LoadLockedReq misses (Count)
system.cpu.dcache.LoadLockedReq.misses::total           13                       # number of LoadLockedReq misses (Count)
system.cpu.dcache.LoadLockedReq.missLatency::cpu.data       516500                       # number of LoadLockedReq miss ticks (Tick)
system.cpu.dcache.LoadLockedReq.missLatency::total       516500                       # number of LoadLockedReq miss ticks (Tick)
system.cpu.dcache.LoadLockedReq.accesses::cpu.data          435                       # number of LoadLockedReq accesses(hits+misses) (Count)
system.cpu.dcache.LoadLockedReq.accesses::total          435                       # number of LoadLockedReq accesses(hits+misses) (Count)
system.cpu.dcache.LoadLockedReq.missRate::cpu.data     0.029885                       # miss rate for LoadLockedReq accesses (Ratio)
system.cpu.dcache.LoadLockedReq.missRate::total     0.029885                       # miss rate for LoadLockedReq accesses (Ratio)
system.cpu.dcache.LoadLockedReq.avgMissLatency::cpu.data 39730.769231                       # average LoadLockedReq miss latency ((Tick/Count))
system.cpu.dcache.LoadLockedReq.avgMissLatency::total 39730.769231                       # average LoadLockedReq miss latency ((Tick/Count))
system.cpu.dcache.LoadLockedReq.mshrHits::cpu.data           13                       # number of LoadLockedReq MSHR hits (Count)
system.cpu.dcache.LoadLockedReq.mshrHits::total           13                       # number of LoadLockedReq MSHR hits (Count)
system.cpu.dcache.ReadReq.hits::cpu.data     45004052                       # number of ReadReq hits (Count)
system.cpu.dcache.ReadReq.hits::total        45004052                       # number of ReadReq hits (Count)
system.cpu.dcache.ReadReq.misses::cpu.data       111353                       # number of ReadReq misses (Count)
system.cpu.dcache.ReadReq.misses::total        111353                       # number of ReadReq misses (Count)
system.cpu.dcache.ReadReq.missLatency::cpu.data   4903861500                       # number of ReadReq miss ticks (Tick)
system.cpu.dcache.ReadReq.missLatency::total   4903861500                       # number of ReadReq miss ticks (Tick)
system.cpu.dcache.ReadReq.accesses::cpu.data     45115405                       # number of ReadReq accesses(hits+misses) (Count)
system.cpu.dcache.ReadReq.accesses::total     45115405                       # number of ReadReq accesses(hits+misses) (Count)
system.cpu.dcache.ReadReq.missRate::cpu.data     0.002468                       # miss rate for ReadReq accesses (Ratio)
system.cpu.dcache.ReadReq.missRate::total     0.002468                       # miss rate for ReadReq accesses (Ratio)
system.cpu.dcache.ReadReq.avgMissLatency::cpu.data 44038.880856                       # average ReadReq miss latency ((Tick/Count))
system.cpu.dcache.ReadReq.avgMissLatency::total 44038.880856                       # average ReadReq miss latency ((Tick/Count))
system.cpu.dcache.ReadReq.mshrHits::cpu.data        86113                       # number of ReadReq MSHR hits (Count)
system.cpu.dcache.ReadReq.mshrHits::total        86113                       # number of ReadReq MSHR hits (Count)
system.cpu.dcache.ReadReq.mshrMisses::cpu.data        25240                       # number of ReadReq MSHR misses (Count)
system.cpu.dcache.ReadReq.mshrMisses::total        25240                       # number of ReadReq MSHR misses (Count)
system.cpu.dcache.ReadReq.mshrMissLatency::cpu.data   1333421000                       # number of ReadReq MSHR miss ticks (Tick)
system.cpu.dcache.ReadReq.mshrMissLatency::total   1333421000                       # number of ReadReq MSHR miss ticks (Tick)
system.cpu.dcache.ReadReq.mshrMissRate::cpu.data     0.000559                       # mshr miss rate for ReadReq accesses (Ratio)
system.cpu.dcache.ReadReq.mshrMissRate::total     0.000559                       # mshr miss rate for ReadReq accesses (Ratio)
system.cpu.dcache.ReadReq.avgMshrMissLatency::cpu.data 52829.675119                       # average ReadReq mshr miss latency ((Tick/Count))
system.cpu.dcache.ReadReq.avgMshrMissLatency::total 52829.675119                       # average ReadReq mshr miss latency ((Tick/Count))
system.cpu.dcache.StoreCondReq.hits::cpu.data          413                       # number of StoreCondReq hits (Count)
system.cpu.dcache.StoreCondReq.hits::total          413                       # number of StoreCondReq hits (Count)
system.cpu.dcache.StoreCondReq.accesses::cpu.data          413                       # number of StoreCondReq accesses(hits+misses) (Count)
system.cpu.dcache.StoreCondReq.accesses::total          413                       # number of StoreCondReq accesses(hits+misses) (Count)
system.cpu.dcache.WriteReq.hits::cpu.data     29328001                       # number of WriteReq hits (Count)
system.cpu.dcache.WriteReq.hits::total       29328001                       # number of WriteReq hits (Count)
system.cpu.dcache.WriteReq.misses::cpu.data       285853                       # number of WriteReq misses (Count)
system.cpu.dcache.WriteReq.misses::total       285853                       # number of WriteReq misses (Count)
system.cpu.dcache.WriteReq.missLatency::cpu.data  23402559981                       # number of WriteReq miss ticks (Tick)
system.cpu.dcache.WriteReq.missLatency::total  23402559981                       # number of WriteReq miss ticks (Tick)
system.cpu.dcache.WriteReq.accesses::cpu.data     29613854                       # number of WriteReq accesses(hits+misses) (Count)
system.cpu.dcache.WriteReq.accesses::total     29613854                       # number of WriteReq accesses(hits+misses) (Count)
system.cpu.dcache.WriteReq.missRate::cpu.data     0.009653                       # miss rate for WriteReq accesses (Ratio)
system.cpu.dcache.WriteReq.missRate::total     0.009653                       # miss rate for WriteReq accesses (Ratio)
system.cpu.dcache.WriteReq.avgMissLatency::cpu.data 81869.212431                       # average WriteReq miss latency ((Tick/Count))
system.cpu.dcache.WriteReq.avgMissLatency::total 81869.212431                       # average WriteReq miss latency ((Tick/Count))
system.cpu.dcache.WriteReq.mshrHits::cpu.data       258090                       # number of WriteReq MSHR hits (Count)
system.cpu.dcache.WriteReq.mshrHits::total       258090                       # number of WriteReq MSHR hits (Count)
system.cpu.dcache.WriteReq.mshrMisses::cpu.data        27763                       # number of WriteReq MSHR misses (Count)
system.cpu.dcache.WriteReq.mshrMisses::total        27763                       # number of WriteReq MSHR misses (Count)
system.cpu.dcache.WriteReq.mshrMissLatency::cpu.data   2316343993                       # number of WriteReq MSHR miss ticks (Tick)
system.cpu.dcache.WriteReq.mshrMissLatency::total   2316343993                       # number of WriteReq MSHR miss ticks (Tick)
system.cpu.dcache.WriteReq.mshrMissRate::cpu.data     0.000938                       # mshr miss rate for WriteReq accesses (Ratio)
system.cpu.dcache.WriteReq.mshrMissRate::total     0.000938                       # mshr miss rate for WriteReq accesses (Ratio)
system.cpu.dcache.WriteReq.avgMshrMissLatency::cpu.data 83432.769982                       # average WriteReq mshr miss latency ((Tick/Count))
system.cpu.dcache.WriteReq.avgMshrMissLatency::total 83432.769982                       # average WriteReq mshr miss latency ((Tick/Count))
system.cpu.dcache.power_state.pwrStateResidencyTicks::UNDEFINED  49197248500                       # Cumulative time (in ticks) in various power states (Tick)
system.cpu.dcache.tags.tagsInUse           511.039168                       # Average ticks per tags in use ((Tick/Count))
system.cpu.dcache.tags.totalRefs             74385899                       # Total number of references to valid blocks. (Count)
system.cpu.dcache.tags.sampledRefs              53000                       # Sample count of references to valid blocks. (Count)
system.cpu.dcache.tags.avgRefs            1403.507528                       # Average number of references to valid blocks. ((Count/Count))
system.cpu.dcache.tags.warmupTick              148500                       # The tick when the warmup percentage was hit. (Tick)
system.cpu.dcache.tags.occupancies::cpu.data   511.039168                       # Average occupied blocks per tick, per requestor ((Count/Tick))
system.cpu.dcache.tags.avgOccs::cpu.data     0.998123                       # Average percentage of cache occupancy ((Ratio/Tick))
system.cpu.dcache.tags.avgOccs::total        0.998123                       # Average percentage of cache occupancy ((Ratio/Tick))
system.cpu.dcache.tags.occupanciesTaskId::1024          512                       # Occupied blocks per task id (Count)
system.cpu.dcache.tags.ageTaskId_1024::0            2                       # Occupied blocks per task id, per block age (Count)
system.cpu.dcache.tags.ageTaskId_1024::1           20                       # Occupied blocks per task id, per block age (Count)
system.cpu.dcache.tags.ageTaskId_1024::2          205                       # Occupied blocks per task id, per block age (Count)
system.cpu.dcache.tags.ageTaskId_1024::3          157                       # Occupied blocks per task id, per block age (Count)
system.cpu.dcache.tags.ageTaskId_1024::4          128                       # Occupied blocks per task id, per block age (Count)
system.cpu.dcache.tags.ratioOccsTaskId::1024            1                       # Ratio of occupied blocks and all blocks, per task id (Ratio)
system.cpu.dcache.tags.tagAccesses          149513214                       # Number of tag accesses (Count)
system.cpu.dcache.tags.dataAccesses         149513214                       # Number of data accesses (Count)
system.cpu.dcache.tags.power_state.pwrStateResidencyTicks::UNDEFINED  49197248500                       # Cumulative time (in ticks) in various power states (Tick)
system.cpu.decode.idleCycles                 32168600                       # Number of cycles decode is idle (Cycle)
system.cpu.decode.blockedCycles              19395972                       # Number of cycles decode is blocked (Cycle)
system.cpu.decode.runCycles                  40533164                       # Number of cycles decode is running (Cycle)
system.cpu.decode.unblockCycles               5267156                       # Number of cycles decode is unblocking (Cycle)
system.cpu.decode.squashCycles                 940355                       # Number of cycles decode is squashing (Cycle)
system.cpu.decode.branchResolved             13200232                       # Number of times decode resolved a branch (Count)
system.cpu.decode.branchMispred                564308                       # Number of times decode detected a branch misprediction (Count)
system.cpu.decode.decodedInsts              267579762                       # Number of instructions handled by decode (Count)
system.cpu.decode.squashedInsts                  5649                       # Number of squashed instructions handled by decode (Count)
system.cpu.fetch.icacheStallCycles           40110216                       # Number of cycles fetch is stalled on an Icache miss (Cycle)
system.cpu.fetch.insts                      250507250                       # Number of instructions fetch has processed (Count)
system.cpu.fetch.branches                    48013147                       # Number of branches that fetch encountered (Count)
system.cpu.fetch.predictedBranches           18487537                       # Number of branches that fetch has predicted taken (Count)
system.cpu.fetch.cycles                      56739702                       # Number of cycles fetch has run and was not squashing or blocked (Cycle)
system.cpu.fetch.squashCycles                 2910012                       # Number of cycles fetch has spent squashing (Cycle)
system.cpu.fetch.miscStallCycles                   48                       # Number of cycles fetch has spent waiting on interrupts, or bad addresses, or out of MSHRs (Cycle)
system.cpu.fetch.pendingTrapStallCycles           145                       # Number of stall cycles due to pending traps (Cycle)
system.cpu.fetch.icacheWaitRetryStallCycles          130                       # Number of stall cycles due to full MSHR (Cycle)
system.cpu.fetch.cacheLines                  36441293                       # Number of cache lines fetched (Count)
system.cpu.fetch.icacheSquashes                232075                       # Number of outstanding Icache misses that were squashed (Count)
system.cpu.fetch.nisnDist::samples           98305247                       # Number of instructions fetched each cycle (Total) (Count)
system.cpu.fetch.nisnDist::mean              2.879080                       # Number of instructions fetched each cycle (Total) (Count)
system.cpu.fetch.nisnDist::stdev             3.395765                       # Number of instructions fetched each cycle (Total) (Count)
system.cpu.fetch.nisnDist::underflows               0      0.00%      0.00% # Number of instructions fetched each cycle (Total) (Count)
system.cpu.fetch.nisnDist::0                 48060056     48.89%     48.89% # Number of instructions fetched each cycle (Total) (Count)
system.cpu.fetch.nisnDist::1                  5062809      5.15%     54.04% # Number of instructions fetched each cycle (Total) (Count)
system.cpu.fetch.nisnDist::2                  5888501      5.99%     60.03% # Number of instructions fetched each cycle (Total) (Count)
system.cpu.fetch.nisnDist::3                  1793055      1.82%     61.85% # Number of instructions fetched each cycle (Total) (Count)
system.cpu.fetch.nisnDist::4                  5083171      5.17%     67.02% # Number of instructions fetched each cycle (Total) (Count)
system.cpu.fetch.nisnDist::5                  4483599      4.56%     71.58% # Number of instructions fetched each cycle (Total) (Count)
system.cpu.fetch.nisnDist::6                  1844531      1.88%     73.46% # Number of instructions fetched each cycle (Total) (Count)
system.cpu.fetch.nisnDist::7                  1724408      1.75%     75.21% # Number of instructions fetched each cycle (Total) (Count)
system.cpu.fetch.nisnDist::8                 24365117     24.79%    100.00% # Number of instructions fetched each cycle (Total) (Count)
system.cpu.fetch.nisnDist::overflows                0      0.00%    100.00% # Number of instructions fetched each cycle (Total) (Count)
system.cpu.fetch.nisnDist::min_value                0                       # Number of instructions fetched each cycle (Total) (Count)
system.cpu.fetch.nisnDist::max_value                8                       # Number of instructions fetched each cycle (Total) (Count)
system.cpu.fetch.nisnDist::total             98305247                       # Number of instructions fetched each cycle (Total) (Count)
system.cpu.fetch.branchRate                  0.487966                       # Number of branch fetches per cycle (Ratio)
system.cpu.fetch.rate                        2.545948                       # Number of inst fetches per cycle ((Count/Cycle))
system.cpu.icache.demandHits::cpu.inst       36335780                       # number of demand (read+write) hits (Count)
system.cpu.icache.demandHits::total          36335780                       # number of demand (read+write) hits (Count)
system.cpu.icache.overallHits::cpu.inst      36335780                       # number of overall hits (Count)
system.cpu.icache.overallHits::total         36335780                       # number of overall hits (Count)
system.cpu.icache.demandMisses::cpu.inst       105512                       # number of demand (read+write) misses (Count)
system.cpu.icache.demandMisses::total          105512                       # number of demand (read+write) misses (Count)
system.cpu.icache.overallMisses::cpu.inst       105512                       # number of overall misses (Count)
system.cpu.icache.overallMisses::total         105512                       # number of overall misses (Count)
system.cpu.icache.demandMissLatency::cpu.inst   1502110999                       # number of demand (read+write) miss ticks (Tick)
system.cpu.icache.demandMissLatency::total   1502110999                       # number of demand (read+write) miss ticks (Tick)
system.cpu.icache.overallMissLatency::cpu.inst   1502110999                       # number of overall miss ticks (Tick)
system.cpu.icache.overallMissLatency::total   1502110999                       # number of overall miss ticks (Tick)
system.cpu.icache.demandAccesses::cpu.inst     36441292                       # number of demand (read+write) accesses (Count)
system.cpu.icache.demandAccesses::total      36441292                       # number of demand (read+write) accesses (Count)
system.cpu.icache.overallAccesses::cpu.inst     36441292                       # number of overall (read+write) accesses (Count)
system.cpu.icache.overallAccesses::total     36441292                       # number of overall (read+write) accesses (Count)
system.cpu.icache.demandMissRate::cpu.inst     0.002895                       # miss rate for demand accesses (Ratio)
system.cpu.icache.demandMissRate::total      0.002895                       # miss rate for demand accesses (Ratio)
system.cpu.icache.overallMissRate::cpu.inst     0.002895                       # miss rate for overall accesses (Ratio)
system.cpu.icache.overallMissRate::total     0.002895                       # miss rate for overall accesses (Ratio)
system.cpu.icache.demandAvgMissLatency::cpu.inst 14236.399642                       # average overall miss latency in ticks ((Tick/Count))
system.cpu.icache.demandAvgMissLatency::total 14236.399642                       # average overall miss latency in ticks ((Tick/Count))
system.cpu.icache.overallAvgMissLatency::cpu.inst 14236.399642                       # average overall miss latency ((Tick/Count))
system.cpu.icache.overallAvgMissLatency::total 14236.399642                       # average overall miss latency ((Tick/Count))
system.cpu.icache.blockedCycles::no_mshrs         1433                       # number of cycles access was blocked (Cycle)
system.cpu.icache.blockedCycles::no_targets            0                       # number of cycles access was blocked (Cycle)
system.cpu.icache.blockedCauses::no_mshrs           29                       # number of times access was blocked (Count)
system.cpu.icache.blockedCauses::no_targets            0                       # number of times access was blocked (Count)
system.cpu.icache.avgBlocked::no_mshrs      49.413793                       # average number of cycles each access was blocked ((Cycle/Count))
system.cpu.icache.avgBlocked::no_targets          nan                       # average number of cycles each access was blocked ((Cycle/Count))
system.cpu.icache.demandMshrHits::cpu.inst          954                       # number of demand (read+write) MSHR hits (Count)
system.cpu.icache.demandMshrHits::total           954                       # number of demand (read+write) MSHR hits (Count)
system.cpu.icache.overallMshrHits::cpu.inst          954                       # number of overall MSHR hits (Count)
system.cpu.icache.overallMshrHits::total          954                       # number of overall MSHR hits (Count)
system.cpu.icache.demandMshrMisses::cpu.inst       104558                       # number of demand (read+write) MSHR misses (Count)
system.cpu.icache.demandMshrMisses::total       104558                       # number of demand (read+write) MSHR misses (Count)
system.cpu.icache.overallMshrMisses::cpu.inst       104558                       # number of overall MSHR misses (Count)
system.cpu.icache.overallMshrMisses::total       104558                       # number of overall MSHR misses (Count)
system.cpu.icache.demandMshrMissLatency::cpu.inst   1368567499                       # number of demand (read+write) MSHR miss ticks (Tick)
system.cpu.icache.demandMshrMissLatency::total   1368567499                       # number of demand (read+write) MSHR miss ticks (Tick)
system.cpu.icache.overallMshrMissLatency::cpu.inst   1368567499                       # number of overall MSHR miss ticks (Tick)
system.cpu.icache.overallMshrMissLatency::total   1368567499                       # number of overall MSHR miss ticks (Tick)
system.cpu.icache.demandMshrMissRate::cpu.inst     0.002869                       # mshr miss ratio for demand accesses (Ratio)
system.cpu.icache.demandMshrMissRate::total     0.002869                       # mshr miss ratio for demand accesses (Ratio)
system.cpu.icache.overallMshrMissRate::cpu.inst     0.002869                       # mshr miss ratio for overall accesses (Ratio)
system.cpu.icache.overallMshrMissRate::total     0.002869                       # mshr miss ratio for overall accesses (Ratio)
system.cpu.icache.demandAvgMshrMissLatency::cpu.inst 13089.074954                       # average overall mshr miss latency ((Tick/Count))
system.cpu.icache.demandAvgMshrMissLatency::total 13089.074954                       # average overall mshr miss latency ((Tick/Count))
system.cpu.icache.overallAvgMshrMissLatency::cpu.inst 13089.074954                       # average overall mshr miss latency ((Tick/Count))
system.cpu.icache.overallAvgMshrMissLatency::total 13089.074954                       # average overall mshr miss latency ((Tick/Count))
system.cpu.icache.replacements                 104046                       # number of replacements (Count)
system.cpu.icache.ReadReq.hits::cpu.inst     36335780                       # number of ReadReq hits (Count)
system.cpu.icache.ReadReq.hits::total        36335780                       # number of ReadReq hits (Count)
system.cpu.icache.ReadReq.misses::cpu.inst       105512                       # number of ReadReq misses (Count)
system.cpu.icache.ReadReq.misses::total        105512                       # number of ReadReq misses (Count)
system.cpu.icache.ReadReq.missLatency::cpu.inst   1502110999                       # number of ReadReq miss ticks (Tick)
system.cpu.icache.ReadReq.missLatency::total   1502110999                       # number of ReadReq miss ticks (Tick)
system.cpu.icache.ReadReq.accesses::cpu.inst     36441292                       # number of ReadReq accesses(hits+misses) (Count)
system.cpu.icache.ReadReq.accesses::total     36441292                       # number of ReadReq accesses(hits+misses) (Count)
system.cpu.icache.ReadReq.missRate::cpu.inst     0.002895                       # miss rate for ReadReq accesses (Ratio)
system.cpu.icache.ReadReq.missRate::total     0.002895                       # miss rate for ReadReq accesses (Ratio)
system.cpu.icache.ReadReq.avgMissLatency::cpu.inst 14236.399642                       # average ReadReq miss latency ((Tick/Count))
system.cpu.icache.ReadReq.avgMissLatency::total 14236.399642                       # average ReadReq miss latency ((Tick/Count))
system.cpu.icache.ReadReq.mshrHits::cpu.inst          954                       # number of ReadReq MSHR hits (Count)
system.cpu.icache.ReadReq.mshrHits::total          954                       # number of ReadReq MSHR hits (Count)
system.cpu.icache.ReadReq.mshrMisses::cpu.inst       104558                       # number of ReadReq MSHR misses (Count)
system.cpu.icache.ReadReq.mshrMisses::total       104558                       # number of ReadReq MSHR misses (Count)
system.cpu.icache.ReadReq.mshrMissLatency::cpu.inst   1368567499                       # number of ReadReq MSHR miss ticks (Tick)
system.cpu.icache.ReadReq.mshrMissLatency::total   1368567499                       # number of ReadReq MSHR miss ticks (Tick)
system.cpu.icache.ReadReq.mshrMissRate::cpu.inst     0.002869                       # mshr miss rate for ReadReq accesses (Ratio)
system.cpu.icache.ReadReq.mshrMissRate::total     0.002869                       # mshr miss rate for ReadReq accesses (Ratio)
system.cpu.icache.ReadReq.avgMshrMissLatency::cpu.inst 13089.074954                       # average ReadReq mshr miss latency ((Tick/Count))
system.cpu.icache.ReadReq.avgMshrMissLatency::total 13089.074954                       # average ReadReq mshr miss latency ((Tick/Count))
system.cpu.icache.power_state.pwrStateResidencyTicks::UNDEFINED  49197248500                       # Cumulative time (in ticks) in various power states (Tick)
system.cpu.icache.tags.tagsInUse           508.363981                       # Average ticks per tags in use ((Tick/Count))
system.cpu.icache.tags.totalRefs             36440338                       # Total number of references to valid blocks. (Count)
system.cpu.icache.tags.sampledRefs             104558                       # Sample count of references to valid blocks. (Count)
system.cpu.icache.tags.avgRefs             348.517933                       # Average number of references to valid blocks. ((Count/Count))
system.cpu.icache.tags.warmupTick               81500                       # The tick when the warmup percentage was hit. (Tick)
system.cpu.icache.tags.occupancies::cpu.inst   508.363981                       # Average occupied blocks per tick, per requestor ((Count/Tick))
system.cpu.icache.tags.avgOccs::cpu.inst     0.992898                       # Average percentage of cache occupancy ((Ratio/Tick))
system.cpu.icache.tags.avgOccs::total        0.992898                       # Average percentage of cache occupancy ((Ratio/Tick))
system.cpu.icache.tags.occupanciesTaskId::1024          508                       # Occupied blocks per task id (Count)
system.cpu.icache.tags.ageTaskId_1024::1            6                       # Occupied blocks per task id, per block age (Count)
system.cpu.icache.tags.ageTaskId_1024::2            3                       # Occupied blocks per task id, per block age (Count)
system.cpu.icache.tags.ageTaskId_1024::3            3                       # Occupied blocks per task id, per block age (Count)
system.cpu.icache.tags.ageTaskId_1024::4          496                       # Occupied blocks per task id, per block age (Count)
system.cpu.icache.tags.ratioOccsTaskId::1024     0.992188                       # Ratio of occupied blocks and all blocks, per task id (Ratio)
system.cpu.icache.tags.tagAccesses           72987142                       # Number of tag accesses (Count)
system.cpu.icache.tags.dataAccesses          72987142                       # Number of data accesses (Count)
system.cpu.icache.tags.power_state.pwrStateResidencyTicks::UNDEFINED  49197248500                       # Cumulative time (in ticks) in various power states (Tick)
system.cpu.iew.idleCycles                           0                       # Number of cycles IEW is idle (Cycle)
system.cpu.iew.squashCycles                    940355                       # Number of cycles IEW is squashing (Cycle)
system.cpu.iew.blockCycles                    3242937                       # Number of cycles IEW is blocking (Cycle)
system.cpu.iew.unblockCycles                    41105                       # Number of cycles IEW is unblocking (Cycle)
system.cpu.iew.dispatchedInsts              257317536                       # Number of instructions dispatched to IQ (Count)
system.cpu.iew.dispSquashedInsts                 3513                       # Number of squashed instructions skipped by dispatch (Count)
system.cpu.iew.dispLoadInsts                 55925758                       # Number of dispatched load instructions (Count)
system.cpu.iew.dispStoreInsts                32356537                       # Number of dispatched store instructions (Count)
system.cpu.iew.dispNonSpecInsts                   748                       # Number of dispatched non-speculative instructions (Count)
system.cpu.iew.iqFullEvents                      2837                       # Number of times the IQ has become full, causing a stall (Count)
system.cpu.iew.lsqFullEvents                    38193                       # Number of times the LSQ has become full, causing a stall (Count)
system.cpu.iew.memOrderViolationEvents           4863                       # Number of memory order violations (Count)
system.cpu.iew.predictedTakenIncorrect         129505                       # Number of branches that were predicted taken incorrectly (Count)
system.cpu.iew.predictedNotTakenIncorrect      1031301                       # Number of branches that were predicted not taken incorrectly (Count)
system.cpu.iew.branchMispredicts              1160806                       # Number of branch mispredicts detected at execute (Count)
system.cpu.iew.instsToCommit                235518389                       # Cumulative count of insts sent to commit (Count)
system.cpu.iew.writebackCount               235252597                       # Cumulative count of insts written-back (Count)
system.cpu.iew.producerInst                 142642289                       # Number of instructions producing a value (Count)
system.cpu.iew.consumerInst                 250561582                       # Number of instructions consuming a value (Count)
system.cpu.iew.wbRate                        2.390912                       # Insts written-back per cycle ((Count/Cycle))
system.cpu.iew.wbFanout                      0.569290                       # Average fanout of values written-back ((Count/Count))
system.cpu.lsq0.forwLoads                     6232503                       # Number of loads that had data forwarded from stores (Count)
system.cpu.lsq0.squashedLoads                 6152606                       # Number of loads squashed (Count)
system.cpu.lsq0.ignoredResponses                14186                       # Number of memory responses ignored because the instruction is squashed (Count)
system.cpu.lsq0.memOrderViolation                4863                       # Number of memory ordering violations (Count)
system.cpu.lsq0.squashedStores                2142232                       # Number of stores squashed (Count)
system.cpu.lsq0.rescheduledLoads              4062417                       # Number of loads that were rescheduled (Count)
system.cpu.lsq0.blockedByCache                     81                       # Number of times an access to memory failed due to the cache being blocked (Count)
system.cpu.lsq0.loadToUse::samples           49773152                       # Distribution of cycle latency between the first time a load is issued and its completion (Unspecified)
system.cpu.lsq0.loadToUse::mean              3.929765                       # Distribution of cycle latency between the first time a load is issued and its completion (Unspecified)
system.cpu.lsq0.loadToUse::stdev             6.540791                       # Distribution of cycle latency between the first time a load is issued and its completion (Unspecified)
system.cpu.lsq0.loadToUse::0-9               48001673     96.44%     96.44% # Distribution of cycle latency between the first time a load is issued and its completion (Unspecified)
system.cpu.lsq0.loadToUse::10-19              1035150      2.08%     98.52% # Distribution of cycle latency between the first time a load is issued and its completion (Unspecified)
system.cpu.lsq0.loadToUse::20-29               580950      1.17%     99.69% # Distribution of cycle latency between the first time a load is issued and its completion (Unspecified)
system.cpu.lsq0.loadToUse::30-39                89416      0.18%     99.87% # Distribution of cycle latency between the first time a load is issued and its completion (Unspecified)
system.cpu.lsq0.loadToUse::40-49                 3927      0.01%     99.88% # Distribution of cycle latency between the first time a load is issued and its completion (Unspecified)
system.cpu.lsq0.loadToUse::50-59                 2456      0.00%     99.88% # Distribution of cycle latency between the first time a load is issued and its completion (Unspecified)
system.cpu.lsq0.loadToUse::60-69                 5578      0.01%     99.89% # Distribution of cycle latency between the first time a load is issued and its completion (Unspecified)
system.cpu.lsq0.loadToUse::70-79                10521      0.02%     99.91% # Distribution of cycle latency between the first time a load is issued and its completion (Unspecified)
system.cpu.lsq0.loadToUse::80-89                 4754      0.01%     99.92% # Distribution of cycle latency between the first time a load is issued and its completion (Unspecified)
system.cpu.lsq0.loadToUse::90-99                 1496      0.00%     99.93% # Distribution of cycle latency between the first time a load is issued and its completion (Unspecified)
system.cpu.lsq0.loadToUse::100-109                843      0.00%     99.93% # Distribution of cycle latency between the first time a load is issued and its completion (Unspecified)
system.cpu.lsq0.loadToUse::110-119                477      0.00%     99.93% # Distribution of cycle latency between the first time a load is issued and its completion (Unspecified)
system.cpu.lsq0.loadToUse::120-129               5619      0.01%     99.94% # Distribution of cycle latency between the first time a load is issued and its completion (Unspecified)
system.cpu.lsq0.loadToUse::130-139               8555      0.02%     99.96% # Distribution of cycle latency between the first time a load is issued and its completion (Unspecified)
system.cpu.lsq0.loadToUse::140-149                467      0.00%     99.96% # Distribution of cycle latency between the first time a load is issued and its completion (Unspecified)
system.cpu.lsq0.loadToUse::150-159                802      0.00%     99.96% # Distribution of cycle latency between the first time a load is issued and its completion (Unspecified)
system.cpu.lsq0.loadToUse::160-169                598      0.00%     99.96% # Distribution of cycle latency between the first time a load is issued and its completion (Unspecified)
system.cpu.lsq0.loadToUse::170-179                256      0.00%     99.96% # Distribution of cycle latency between the first time a load is issued and its completion (Unspecified)
system.cpu.lsq0.loadToUse::180-189               7491      0.02%     99.98% # Distribution of cycle latency between the first time a load is issued and its completion (Unspecified)
[...]
system.mem_ctrl.dram.perBankRdBursts::7          1314                       # Per bank write bursts (Count)
system.mem_ctrl.dram.perBankRdBursts::8          1362                       # Per bank write bursts (Count)
system.mem_ctrl.dram.perBankRdBursts::9          1347                       # Per bank write bursts (Count)
system.mem_ctrl.dram.perBankRdBursts::10         1361                       # Per bank write bursts (Count)
system.mem_ctrl.dram.perBankRdBursts::11         1306                       # Per bank write bursts (Count)
system.mem_ctrl.dram.perBankRdBursts::12         1297                       # Per bank write bursts (Count)
system.mem_ctrl.dram.perBankRdBursts::13         1288                       # Per bank write bursts (Count)
system.mem_ctrl.dram.perBankRdBursts::14         1304                       # Per bank write bursts (Count)
system.mem_ctrl.dram.perBankRdBursts::15         1348                       # Per bank write bursts (Count)
system.mem_ctrl.dram.perBankRdBursts::16         1310                       # Per bank write bursts (Count)
system.mem_ctrl.dram.perBankRdBursts::17         1317                       # Per bank write bursts (Count)
system.mem_ctrl.dram.perBankRdBursts::18         1355                       # Per bank write bursts (Count)
system.mem_ctrl.dram.perBankRdBursts::19         1296                       # Per bank write bursts (Count)
system.mem_ctrl.dram.perBankRdBursts::20         1298                       # Per bank write bursts (Count)
system.mem_ctrl.dram.perBankRdBursts::21         1348                       # Per bank write bursts (Count)
system.mem_ctrl.dram.perBankRdBursts::22         1316                       # Per bank write bursts (Count)
system.mem_ctrl.dram.perBankRdBursts::23         1252                       # Per bank write bursts (Count)
system.mem_ctrl.dram.perBankRdBursts::24         1156                       # Per bank write bursts (Count)
system.mem_ctrl.dram.perBankRdBursts::25         1231                       # Per bank write bursts (Count)
system.mem_ctrl.dram.perBankRdBursts::26         1283                       # Per bank write bursts (Count)
system.mem_ctrl.dram.perBankRdBursts::27         1181                       # Per bank write bursts (Count)
system.mem_ctrl.dram.perBankRdBursts::28         1188                       # Per bank write bursts (Count)
system.mem_ctrl.dram.perBankRdBursts::29         1238                       # Per bank write bursts (Count)
system.mem_ctrl.dram.perBankRdBursts::30         1291                       # Per bank write bursts (Count)
system.mem_ctrl.dram.perBankRdBursts::31         1289                       # Per bank write bursts (Count)
system.mem_ctrl.dram.perBankWrBursts::0           710                       # Per bank write bursts (Count)
system.mem_ctrl.dram.perBankWrBursts::1           673                       # Per bank write bursts (Count)
system.mem_ctrl.dram.perBankWrBursts::2           646                       # Per bank write bursts (Count)
system.mem_ctrl.dram.perBankWrBursts::3           643                       # Per bank write bursts (Count)
system.mem_ctrl.dram.perBankWrBursts::4           768                       # Per bank write bursts (Count)
system.mem_ctrl.dram.perBankWrBursts::5           768                       # Per bank write bursts (Count)
system.mem_ctrl.dram.perBankWrBursts::6           768                       # Per bank write bursts (Count)
system.mem_ctrl.dram.perBankWrBursts::7           768                       # Per bank write bursts (Count)
system.mem_ctrl.dram.perBankWrBursts::8           768                       # Per bank write bursts (Count)
system.mem_ctrl.dram.perBankWrBursts::9           768                       # Per bank write bursts (Count)
system.mem_ctrl.dram.perBankWrBursts::10          768                       # Per bank write bursts (Count)
system.mem_ctrl.dram.perBankWrBursts::11          768                       # Per bank write bursts (Count)
system.mem_ctrl.dram.perBankWrBursts::12          768                       # Per bank write bursts (Count)
system.mem_ctrl.dram.perBankWrBursts::13          768                       # Per bank write bursts (Count)
system.mem_ctrl.dram.perBankWrBursts::14          768                       # Per bank write bursts (Count)
system.mem_ctrl.dram.perBankWrBursts::15          768                       # Per bank write bursts (Count)
system.mem_ctrl.dram.perBankWrBursts::16          768                       # Per bank write bursts (Count)
system.mem_ctrl.dram.perBankWrBursts::17          768                       # Per bank write bursts (Count)
system.mem_ctrl.dram.perBankWrBursts::18          768                       # Per bank write bursts (Count)
system.mem_ctrl.dram.perBankWrBursts::19          765                       # Per bank write bursts (Count)
system.mem_ctrl.dram.perBankWrBursts::20          768                       # Per bank write bursts (Count)
system.mem_ctrl.dram.perBankWrBursts::21          768                       # Per bank write bursts (Count)
system.mem_ctrl.dram.perBankWrBursts::22          768                       # Per bank write bursts (Count)
system.mem_ctrl.dram.perBankWrBursts::23          768                       # Per bank write bursts (Count)
system.mem_ctrl.dram.perBankWrBursts::24          768                       # Per bank write bursts (Count)
system.mem_ctrl.dram.perBankWrBursts::25          768                       # Per bank write bursts (Count)
system.mem_ctrl.dram.perBankWrBursts::26          799                       # Per bank write bursts (Count)
system.mem_ctrl.dram.perBankWrBursts::27          775                       # Per bank write bursts (Count)
system.mem_ctrl.dram.perBankWrBursts::28          768                       # Per bank write bursts (Count)
system.mem_ctrl.dram.perBankWrBursts::29          794                       # Per bank write bursts (Count)
system.mem_ctrl.dram.perBankWrBursts::30          835                       # Per bank write bursts (Count)
system.mem_ctrl.dram.perBankWrBursts::31          684                       # Per bank write bursts (Count)
system.mem_ctrl.dram.totQLat                881549810                       # Total ticks spent queuing (Tick)
system.mem_ctrl.dram.totBusLat              139647452                       # Total ticks spent in databus transfers (Tick)
system.mem_ctrl.dram.totMemAccLat          1614657022                       # Total ticks spent from burst creation until serviced by the DRAM (Tick)
system.mem_ctrl.dram.avgQLat                 21033.85                       # Average queueing delay per DRAM burst ((Tick/Count))
system.mem_ctrl.dram.avgBusLat                3332.00                       # Average bus latency per DRAM burst ((Tick/Count))
system.mem_ctrl.dram.avgMemAccLat            38525.85                       # Average memory access latency per DRAM burst ((Tick/Count))
system.mem_ctrl.dram.readRowHits                28333                       # Number of row buffer hits during reads (Count)
system.mem_ctrl.dram.writeRowHits               21684                       # Number of row buffer hits during writes (Count)
system.mem_ctrl.dram.readRowHitRate             67.60                       # Row buffer hit rate for reads (Ratio)
system.mem_ctrl.dram.writeRowHitRate            89.53                       # Row buffer hit rate for writes (Ratio)
system.mem_ctrl.dram.bytesPerActivate::samples        16113                       # Bytes accessed per row activation (Byte)
system.mem_ctrl.dram.bytesPerActivate::mean   262.664929                       # Bytes accessed per row activation (Byte)
system.mem_ctrl.dram.bytesPerActivate::gmean   166.968650                       # Bytes accessed per row activation (Byte)
system.mem_ctrl.dram.bytesPerActivate::stdev   302.951310                       # Bytes accessed per row activation (Byte)
system.mem_ctrl.dram.bytesPerActivate::0-127         4249     26.37%     26.37% # Bytes accessed per row activation (Byte)
system.mem_ctrl.dram.bytesPerActivate::128-255         8562     53.14%     79.51% # Bytes accessed per row activation (Byte)
system.mem_ctrl.dram.bytesPerActivate::256-383          350      2.17%     81.68% # Bytes accessed per row activation (Byte)
system.mem_ctrl.dram.bytesPerActivate::384-511          268      1.66%     83.34% # Bytes accessed per row activation (Byte)
system.mem_ctrl.dram.bytesPerActivate::512-639          519      3.22%     86.56% # Bytes accessed per row activation (Byte)
system.mem_ctrl.dram.bytesPerActivate::640-767          121      0.75%     87.31% # Bytes accessed per row activation (Byte)
system.mem_ctrl.dram.bytesPerActivate::768-895          100      0.62%     87.94% # Bytes accessed per row activation (Byte)
system.mem_ctrl.dram.bytesPerActivate::896-1023          189      1.17%     89.11% # Bytes accessed per row activation (Byte)
system.mem_ctrl.dram.bytesPerActivate::1024-1151         1755     10.89%    100.00% # Bytes accessed per row activation (Byte)
system.mem_ctrl.dram.bytesPerActivate::total        16113                       # Bytes accessed per row activation (Byte)
system.mem_ctrl.dram.bytesRead                2682304                       # Total bytes read (Byte)
system.mem_ctrl.dram.bytesWritten             1550080                       # Total bytes written (Byte)
system.mem_ctrl.dram.avgRdBW                54.521423                       # Average DRAM read bandwidth in MiBytes/s ((Byte/Second))
system.mem_ctrl.dram.avgWrBW                31.507453                       # Average DRAM write bandwidth in MiBytes/s ((Byte/Second))
system.mem_ctrl.dram.peakBW                  19207.00                       # Theoretical peak bandwidth in MiByte/s ((Byte/Second))
system.mem_ctrl.dram.busUtil                     0.45                       # Data bus utilization in percentage (Ratio)
system.mem_ctrl.dram.busUtilRead                 0.28                       # Data bus utilization in percentage for reads (Ratio)
system.mem_ctrl.dram.busUtilWrite                0.16                       # Data bus utilization in percentage for writes (Ratio)
system.mem_ctrl.dram.pageHitRate                75.63                       # Row buffer hit rate, read and write combined (Ratio)
system.mem_ctrl.dram.power_state.pwrStateResidencyTicks::UNDEFINED  49197248500                       # Cumulative time (in ticks) in various power states (Tick)
system.mem_ctrl.dram.rank0.actEnergy     25196397.408001                       # Energy for activate commands per rank (pJ) (Joule)
system.mem_ctrl.dram.rank0.preEnergy     33498287.323199                       # Energy for precharge commands per rank (pJ) (Joule)
system.mem_ctrl.dram.rank0.readEnergy    90696602.841594                       # Energy for read commands per rank (pJ) (Joule)
system.mem_ctrl.dram.rank0.writeEnergy   44681000.448000                       # Energy for write commands per rank (pJ) (Joule)
system.mem_ctrl.dram.rank0.refreshEnergy 8752815848.650011                       # Energy for refresh commands per rank (pJ) (Joule)
system.mem_ctrl.dram.rank0.actBackEnergy 16862239529.150681                       # Energy for active background per rank (pJ) (Joule)
system.mem_ctrl.dram.rank0.preBackEnergy 19159667146.368633                       # Energy for precharge background per rank (pJ) (Joule)
system.mem_ctrl.dram.rank0.actPowerDownEnergy            0                       # Energy for active power-down per rank (pJ) (Joule)
system.mem_ctrl.dram.rank0.prePowerDownEnergy            0                       # Energy for precharge power-down per rank (pJ) (Joule)
system.mem_ctrl.dram.rank0.selfRefreshEnergy            0                       # Energy for self refresh per rank (pJ) (Joule)
system.mem_ctrl.dram.rank0.totalEnergy   44968794812.189804                       # Total energy per rank (pJ) (Joule)
system.mem_ctrl.dram.rank0.averagePower    914.051013                       # Core power per rank (mW) (Watt)
system.mem_ctrl.dram.rank0.totalIdleTime            0                       # Total Idle time Per DRAM Rank (Tick)
system.mem_ctrl.dram.rank0.pwrStateTime::IDLE  29209168094                       # Time in different power states (Tick)
system.mem_ctrl.dram.rank0.pwrStateTime::REF   2211300000                       # Time in different power states (Tick)
system.mem_ctrl.dram.rank0.pwrStateTime::SREF            0                       # Time in different power states (Tick)
system.mem_ctrl.dram.rank0.pwrStateTime::PRE_PDN            0                       # Time in different power states (Tick)
system.mem_ctrl.dram.rank0.pwrStateTime::ACT  17776780406                       # Time in different power states (Tick)
system.mem_ctrl.dram.rank0.pwrStateTime::ACT_PDN            0                       # Time in different power states (Tick)
system.mem_ctrl.dram.rank1.actEnergy     25059172.320001                       # Energy for activate commands per rank (pJ) (Joule)
system.mem_ctrl.dram.rank1.preEnergy     33311701.987198                       # Energy for precharge commands per rank (pJ) (Joule)
system.mem_ctrl.dram.rank1.readEnergy    85594340.563195                       # Energy for read commands per rank (pJ) (Joule)
system.mem_ctrl.dram.rank1.writeEnergy   46349772.672000                       # Energy for write commands per rank (pJ) (Joule)
system.mem_ctrl.dram.rank1.refreshEnergy 8752815848.650011                       # Energy for refresh commands per rank (pJ) (Joule)
system.mem_ctrl.dram.rank1.actBackEnergy 18463790616.365082                       # Energy for active background per rank (pJ) (Joule)
system.mem_ctrl.dram.rank1.preBackEnergy 17929096819.469334                       # Energy for precharge background per rank (pJ) (Joule)
system.mem_ctrl.dram.rank1.actPowerDownEnergy            0                       # Energy for active power-down per rank (pJ) (Joule)
system.mem_ctrl.dram.rank1.prePowerDownEnergy            0                       # Energy for precharge power-down per rank (pJ) (Joule)
system.mem_ctrl.dram.rank1.selfRefreshEnergy            0                       # Energy for self refresh per rank (pJ) (Joule)
system.mem_ctrl.dram.rank1.totalEnergy   45336018272.026520                       # Total energy per rank (pJ) (Joule)
system.mem_ctrl.dram.rank1.averagePower    921.515322                       # Core power per rank (mW) (Watt)
system.mem_ctrl.dram.rank1.totalIdleTime            0                       # Total Idle time Per DRAM Rank (Tick)
system.mem_ctrl.dram.rank1.pwrStateTime::IDLE  27313808886                       # Time in different power states (Tick)
system.mem_ctrl.dram.rank1.pwrStateTime::REF   2211300000                       # Time in different power states (Tick)
system.mem_ctrl.dram.rank1.pwrStateTime::SREF            0                       # Time in different power states (Tick)
system.mem_ctrl.dram.rank1.pwrStateTime::PRE_PDN            0                       # Time in different power states (Tick)
system.mem_ctrl.dram.rank1.pwrStateTime::ACT  19672139614                       # Time in different power states (Tick)
system.mem_ctrl.dram.rank1.pwrStateTime::ACT_PDN            0                       # Time in different power states (Tick)
system.mem_ctrl.power_state.pwrStateResidencyTicks::UNDEFINED  49197248500                       # Cumulative time (in ticks) in various power states (Tick)
system.membus.transDist::ReadResp               14614                       # Transaction distribution (Count)
system.membus.transDist::WritebackDirty         24278                       # Transaction distribution (Count)
system.membus.transDist::CleanEvict             13022                       # Transaction distribution (Count)
system.membus.transDist::ReadExReq              27302                       # Transaction distribution (Count)
system.membus.transDist::ReadExResp             27302                       # Transaction distribution (Count)
system.membus.transDist::ReadSharedReq          14614                       # Transaction distribution (Count)
system.membus.pktCount_system.l2cache.mem_side_port::system.mem_ctrl.port       121132                       # Packet count per connected requestor and responder (Count)
system.membus.pktCount::total                  121132                       # Packet count per connected requestor and responder (Count)
system.membus.pktSize_system.l2cache.mem_side_port::system.mem_ctrl.port      4236416                       # Cumulative packet size per connected requestor and responder (Byte)
system.membus.pktSize::total                  4236416                       # Cumulative packet size per connected requestor and responder (Byte)
system.membus.snoops                                0                       # Total snoops (Count)
system.membus.snoopTraffic                          0                       # Total snoop traffic (Byte)
system.membus.snoopFanout::samples              41916                       # Request fanout histogram (Count)
system.membus.snoopFanout::mean                     0                       # Request fanout histogram (Count)
system.membus.snoopFanout::stdev                    0                       # Request fanout histogram (Count)
system.membus.snoopFanout::underflows               0      0.00%      0.00% # Request fanout histogram (Count)
system.membus.snoopFanout::0                    41916    100.00%    100.00% # Request fanout histogram (Count)
system.membus.snoopFanout::1                        0      0.00%    100.00% # Request fanout histogram (Count)
system.membus.snoopFanout::overflows                0      0.00%    100.00% # Request fanout histogram (Count)
system.membus.snoopFanout::min_value                0                       # Request fanout histogram (Count)
system.membus.snoopFanout::max_value                0                       # Request fanout histogram (Count)
system.membus.snoopFanout::total                41916                       # Request fanout histogram (Count)
system.membus.power_state.pwrStateResidencyTicks::UNDEFINED  49197248500                       # Cumulative time (in ticks) in various power states (Tick)
system.membus.reqLayer0.occupancy            88164000                       # Layer occupancy (ticks) (Tick)
system.membus.reqLayer0.utilization               0.0                       # Layer utilization (Ratio)
system.membus.respLayer0.occupancy          110064478                       # Layer occupancy (ticks) (Tick)
system.membus.respLayer0.utilization              0.0                       # Layer utilization (Ratio)
system.membus.snoop_filter.totRequests          79216                       # Total number of requests made to the snoop filter. (Count)
system.membus.snoop_filter.hitSingleRequests        37326                       # Number of requests hitting in the snoop filter with a single holder of the requested data. (Count)
system.membus.snoop_filter.hitMultiRequests            0                       # Number of requests hitting in the snoop filter with multiple (>1) holders of the requested data. (Count)
system.membus.snoop_filter.totSnoops                0                       # Total number of snoops made to the snoop filter. (Count)
system.membus.snoop_filter.hitSingleSnoops            0                       # Number of snoops hitting in the snoop filter with a single holder of the requested data. (Count)
system.membus.snoop_filter.hitMultiSnoops            0                       # Number of snoops hitting in the snoop filter with multiple (>1) holders of the requested data. (Count)
system.workload.inst.arm                            0                       # number of arm instructions executed (Count)
system.workload.inst.quiesce                        0                       # number of quiesce instructions executed (Count)

---------- End Simulation Statistics   ----------
