
---------- Begin Simulation Statistics ----------
simSeconds                                   0.048760                       # Number of seconds simulated (Second)
simTicks                                  48759929500                       # Number of ticks simulated (Tick)
finalTick                                 48759929500                       # Number of ticks from beginning of simulation (restored from checkpoints and never reset) (Tick)
simFreq                                  1000000000000                       # The number of ticks per simulated second ((Tick/Second))
hostSeconds                                    658.36                       # Real time elapsed on the host (Second)
hostTickRate                                 74062693                       # The number of ticks simulated per host second (ticks/s) ((Tick/Second))
hostMemory                                    2247168                       # Number of bytes of host memory used (Byte)
simInsts                                    200000006                       # Number of instructions simulated (Count)
simOps                                      227162985                       # Number of ops (including micro ops) simulated (Count)
hostInstRate                                   303785                       # Simulator instruction rate (inst/s) ((Count/Second))
hostOpRate                                     345044                       # Simulator op (including micro ops) rate (op/s) ((Count/Second))
system.clk_domain.clock                           500                       # Clock period in ticks (Tick)
system.clk_domain.voltage_domain.voltage            1                       # Voltage in Volts (Volt)
system.cpu.numCycles                         97519860                       # Number of cpu cycles simulated (Cycle)
system.cpu.numWorkItemsStarted                      0                       # Number of work items this cpu started (Count)
system.cpu.numWorkItemsCompleted                    0                       # Number of work items this cpu completed (Count)
system.cpu.instsAdded                       257318151                       # Number of instructions added to the IQ (excludes non-spec) (Count)
system.cpu.nonSpecInstsAdded                     1184                       # Number of non-speculative instructions added to the IQ (Count)
system.cpu.instsIssued                      242088212                       # Number of instructions issued (Count)
system.cpu.squashedInstsIssued                   1724                       # Number of squashed instructions issued (Count)
system.cpu.squashedInstsExamined             30156323                       # Number of squashed instructions iterated over during squash; mainly for profiling (Count)
system.cpu.squashedOperandsExamined          91559674                       # Number of squashed operands that are examined and possibly removed from graph (Count)
system.cpu.squashedNonSpecRemoved                 149                       # Number of squashed non-spec instructions that were removed (Count)
system.cpu.numIssuedDist::samples            97430591                       # Number of insts issued each cycle (Count)
system.cpu.numIssuedDist::mean               2.484725                       # Number of insts issued each cycle (Count)
system.cpu.numIssuedDist::stdev              1.930951                       # Number of insts issued each cycle (Count)
system.cpu.numIssuedDist::underflows                0      0.00%      0.00% # Number of insts issued each cycle (Count)
system.cpu.numIssuedDist::0                  14953825     15.35%     15.35% # Number of insts issued each cycle (Count)
system.cpu.numIssuedDist::1                  20025624     20.55%     35.90% # Number of insts issued each cycle (Count)
system.cpu.numIssuedDist::2                  20213730     20.75%     56.65% # Number of insts issued each cycle (Count)
system.cpu.numIssuedDist::3                  16200620     16.63%     73.28% # Number of insts issued each cycle (Count)
system.cpu.numIssuedDist::4                  10271873     10.54%     83.82% # Number of insts issued each cycle (Count)
system.cpu.numIssuedDist::5                   8274242      8.49%     92.31% # Number of insts issued each cycle (Count)
system.cpu.numIssuedDist::6                   3883443      3.99%     96.30% # Number of insts issued each cycle (Count)
system.cpu.numIssuedDist::7                   1583964      1.63%     97.92% # Number of insts issued each cycle (Count)
system.cpu.numIssuedDist::8                   2023270      2.08%    100.00% # Number of insts issued each cycle (Count)
system.cpu.numIssuedDist::overflows                 0      0.00%    100.00% # Number of insts issued each cycle (Count)
system.cpu.numIssuedDist::min_value                 0                       # Number of insts issued each cycle (Count)
system.cpu.numIssuedDist::max_value                 8                       # Number of insts issued each cycle (Count)
system.cpu.numIssuedDist::total              97430591                       # Number of insts issued each cycle (Count)
system.cpu.statFuBusy::No_OpClass                   0      0.00%      0.00% # attempts to use FU when none available (Count)
system.cpu.statFuBusy::IntAlu                  616322     18.63%     18.63% # attempts to use FU when none available (Count)
system.cpu.statFuBusy::IntMult                      0      0.00%     18.63% # attempts to use FU when none available (Count)
system.cpu.statFuBusy::IntDiv                       0      0.00%     18.63% # attempts to use FU when none available (Count)
system.cpu.statFuBusy::FloatAdd                     0      0.00%     18.63% # attempts to use FU when none available (Count)
system.cpu.statFuBusy::FloatCmp                     0      0.00%     18.63% # attempts to use FU when none available (Count)
system.cpu.statFuBusy::FloatCvt                     0      0.00%     18.63% # attempts to use FU when none available (Count)
system.cpu.statFuBusy::FloatMult                    0      0.00%     18.63% # attempts to use FU when none available (Count)
system.cpu.statFuBusy::FloatMultAcc                 0      0.00%     18.63% # attempts to use FU when none available (Count)
system.cpu.statFuBusy::FloatDiv                     0      0.00%     18.63% # attempts to use FU when none available (Count)
system.cpu.statFuBusy::FloatMisc                    0      0.00%     18.63% # attempts to use FU when none available (Count)
system.cpu.statFuBusy::FloatSqrt                    0      0.00%     18.63% # attempts to use FU when none available (Count)
system.cpu.statFuBusy::SimdAdd                      0      0.00%     18.63% # attempts to use FU when none available (Count)
system.cpu.statFuBusy::SimdAddAcc                   0      0.00%     18.63% # attempts to use FU when none available (Count)
system.cpu.statFuBusy::SimdAlu                      0      0.00%     18.63% # attempts to use FU when none available (Count)
system.cpu.statFuBusy::SimdCmp                      0      0.00%     18.63% # attempts to use FU when none available (Count)
system.cpu.statFuBusy::SimdCvt                      0      0.00%     18.63% # attempts to use FU when none available (Count)
system.cpu.statFuBusy::SimdMisc                     0      0.00%     18.63% # attempts to use FU when none available (Count)
system.cpu.statFuBusy::SimdMult                     0      0.00%     18.63% # attempts to use FU when none available (Count)
system.cpu.statFuBusy::SimdMultAcc                  0      0.00%     18.63% # attempts to use FU when none available (Count)
system.cpu.statFuBusy::SimdShift                    0      0.00%     18.63% # attempts to use FU when none available (Count)
system.cpu.statFuBusy::SimdShiftAcc                 0      0.00%     18.63% # attempts to use FU when none available (Count)
system.cpu.statFuBusy::SimdDiv                      0      0.00%     18.63% # attempts to use FU when none available (Count)
system.cpu.statFuBusy::SimdSqrt                     0      0.00%     18.63% # attempts to use FU when none available (Count)
system.cpu.statFuBusy::SimdFloatAdd                 0      0.00%     18.63% # attempts to use FU when none available (Count)
system.cpu.statFuBusy::SimdFloatAlu                 0      0.00%     18.63% # attempts to use FU when none available (Count)
system.cpu.statFuBusy::SimdFloatCmp                 0      0.00%     18.63% # attempts to use FU when none available (Count)
system.cpu.statFuBusy::SimdFloatCvt                 0      0.00%     18.63% # attempts to use FU when none available (Count)
system.cpu.statFuBusy::SimdFloatDiv                 0      0.00%     18.63% # attempts to use FU when none available (Count)
system.cpu.statFuBusy::SimdFloatMisc                0      0.00%     18.63% # attempts to use FU when none available (Count)
system.cpu.statFuBusy::SimdFloatMult                0      0.00%     18.63% # attempts to use FU when none available (Count)
system.cpu.statFuBusy::SimdFloatMultAcc             0      0.00%     18.63% # attempts to use FU when none available (Count)
system.cpu.statFuBusy::SimdFloatSqrt                0      0.00%     18.63% # attempts to use FU when none available (Count)
system.cpu.statFuBusy::SimdReduceAdd                0      0.00%     18.63% # attempts to use FU when none available (Count)
system.cpu.statFuBusy::SimdReduceAlu                0      0.00%     18.63% # attempts to use FU when none available (Count)
system.cpu.statFuBusy::SimdReduceCmp                0      0.00%     18.63% # attempts to use FU when none available (Count)
system.cpu.statFuBusy::SimdFloatReduceAdd            0      0.00%     18.63% # attempts to use FU when none available (Count)
system.cpu.statFuBusy::SimdFloatReduceCmp            0      0.00%     18.63% # attempts to use FU when none available (Count)
system.cpu.statFuBusy::SimdAes                      0      0.00%     18.63% # attempts to use FU when none available (Count)
system.cpu.statFuBusy::SimdAesMix                   0      0.00%     18.63% # attempts to use FU when none available (Count)
system.cpu.statFuBusy::SimdSha1Hash                 0      0.00%     18.63% # attempts to use FU when none available (Count)
system.cpu.statFuBusy::SimdSha1Hash2                0      0.00%     18.63% # attempts to use FU when none available (Count)
system.cpu.statFuBusy::SimdSha256Hash               0      0.00%     18.63% # attempts to use FU when none available (Count)
system.cpu.statFuBusy::SimdSha256Hash2              0      0.00%     18.63% # attempts to use FU when none available (Count)
system.cpu.statFuBusy::SimdShaSigma2                0      0.00%     18.63% # attempts to use FU when none available (Count)
system.cpu.statFuBusy::SimdShaSigma3                0      0.00%     18.63% # attempts to use FU when none available (Count)
system.cpu.statFuBusy::SimdPredAlu                  0      0.00%     18.63% # attempts to use FU when none available (Count)
system.cpu.statFuBusy::MemRead                1936658     58.54%     77.17% # attempts to use FU when none available (Count)
system.cpu.statFuBusy::MemWrite                755226     22.83%    100.00% # attempts to use FU when none available (Count)
system.cpu.statFuBusy::FloatMemRead                 0      0.00%    100.00% # attempts to use FU when none available (Count)
system.cpu.statFuBusy::FloatMemWrite                0      0.00%    100.00% # attempts to use FU when none available (Count)
system.cpu.statFuBusy::IprAccess                    0      0.00%    100.00% # attempts to use FU when none available (Count)
system.cpu.statFuBusy::InstPrefetch                 0      0.00%    100.00% # attempts to use FU when none available (Count)
system.cpu.statIssuedInstType_0::No_OpClass           52      0.00%      0.00% # Number of instructions issued per FU type, per thread (Count)
system.cpu.statIssuedInstType_0::IntAlu     153199164     63.28%     63.28% # Number of instructions issued per FU type, per thread (Count)
system.cpu.statIssuedInstType_0::IntMult      1145632      0.47%     63.76% # Number of instructions issued per FU type, per thread (Count)
system.cpu.statIssuedInstType_0::IntDiv             0      0.00%     63.76% # Number of instructions issued per FU type, per thread (Count)
system.cpu.statIssuedInstType_0::FloatAdd            0      0.00%     63.76% # Number of instructions issued per FU type, per thread (Count)
system.cpu.statIssuedInstType_0::FloatCmp            0      0.00%     63.76% # Number of instructions issued per FU type, per thread (Count)
system.cpu.statIssuedInstType_0::FloatCvt            0      0.00%     63.76% # Number of instructions issued per FU type, per thread (Count)
system.cpu.statIssuedInstType_0::FloatMult            0      0.00%     63.76% # Number of instructions issued per FU type, per thread (Count)
system.cpu.statIssuedInstType_0::FloatMultAcc            0      0.00%     63.76% # Number of instructions issued per FU type, per thread (Count)
system.cpu.statIssuedInstType_0::FloatDiv            0      0.00%     63.76% # Number of instructions issued per FU type, per thread (Count)
system.cpu.statIssuedInstType_0::FloatMisc            0      0.00%     63.76% # Number of instructions issued per FU type, per thread (Count)
system.cpu.statIssuedInstType_0::FloatSqrt            0      0.00%     63.76% # Number of instructions issued per FU type, per thread (Count)
system.cpu.statIssuedInstType_0::SimdAdd            0      0.00%     63.76% # Number of instructions issued per FU type, per thread (Count)
system.cpu.statIssuedInstType_0::SimdAddAcc            0      0.00%     63.76% # Number of instructions issued per FU type, per thread (Count)
system.cpu.statIssuedInstType_0::SimdAlu            0      0.00%     63.76% # Number of instructions issued per FU type, per thread (Count)
system.cpu.statIssuedInstType_0::SimdCmp            0      0.00%     63.76% # Number of instructions issued per FU type, per thread (Count)
system.cpu.statIssuedInstType_0::SimdCvt            0      0.00%     63.76% # Number of instructions issued per FU type, per thread (Count)
system.cpu.statIssuedInstType_0::SimdMisc            0      0.00%     63.76% # Number of instructions issued per FU type, per thread (Count)
system.cpu.statIssuedInstType_0::SimdMult            0      0.00%     63.76% # Number of instructions issued per FU type, per thread (Count)
system.cpu.statIssuedInstType_0::SimdMultAcc            0      0.00%     63.76% # Number of instructions issued per FU type, per thread (Count)
system.cpu.statIssuedInstType_0::SimdShift            0      0.00%     63.76% # Number of instructions issued per FU type, per thread (Count)
system.cpu.statIssuedInstType_0::SimdShiftAcc            0      0.00%     63.76% # Number of instructions issued per FU type, per thread (Count)
system.cpu.statIssuedInstType_0::SimdDiv            0      0.00%     63.76% # Number of instructions issued per FU type, per thread (Count)
system.cpu.statIssuedInstType_0::SimdSqrt            0      0.00%     63.76% # Number of instructions issued per FU type, per thread (Count)
system.cpu.statIssuedInstType_0::SimdFloatAdd            0      0.00%     63.76% # Number of instructions issued per FU type, per thread (Count)
system.cpu.statIssuedInstType_0::SimdFloatAlu            0      0.00%     63.76% # Number of instructions issued per FU type, per thread (Count)
system.cpu.statIssuedInstType_0::SimdFloatCmp            0      0.00%     63.76% # Number of instructions issued per FU type, per thread (Count)
system.cpu.statIssuedInstType_0::SimdFloatCvt            0      0.00%     63.76% # Number of instructions issued per FU type, per thread (Count)
system.cpu.statIssuedInstType_0::SimdFloatDiv            0      0.00%     63.76% # Number of instructions issued per FU type, per thread (Count)
system.cpu.statIssuedInstType_0::SimdFloatMisc            0      0.00%     63.76% # Number of instructions issued per FU type, per thread (Count)
system.cpu.statIssuedInstType_0::SimdFloatMult            0      0.00%     63.76% # Number of instructions issued per FU type, per thread (Count)
system.cpu.statIssuedInstType_0::SimdFloatMultAcc            0      0.00%     63.76% # Number of instructions issued per FU type, per thread (Count)
system.cpu.statIssuedInstType_0::SimdFloatSqrt            0      0.00%     63.76% # Number of instructions issued per FU type, per thread (Count)
system.cpu.statIssuedInstType_0::SimdReduceAdd            0      0.00%     63.76% # Number of instructions issued per FU type, per thread (Count)
system.cpu.statIssuedInstType_0::SimdReduceAlu            0      0.00%     63.76% # Number of instructions issued per FU type, per thread (Count)
system.cpu.statIssuedInstType_0::SimdReduceCmp            0      0.00%     63.76% # Number of instructions issued per FU type, per thread (Count)
system.cpu.statIssuedInstType_0::SimdFloatReduceAdd            0      0.00%     63.76% # Number of instructions issued per FU type, per thread (Count)
system.cpu.statIssuedInstType_0::SimdFloatReduceCmp            0      0.00%     63.76% # Number of instructions issued per FU type, per thread (Count)
system.cpu.statIssuedInstType_0::SimdAes            0      0.00%     63.76% # Number of instructions issued per FU type, per thread (Count)
system.cpu.statIssuedInstType_0::SimdAesMix            0      0.00%     63.76% # Number of instructions issued per FU type, per thread (Count)
system.cpu.statIssuedInstType_0::SimdSha1Hash            0      0.00%     63.76% # Number of instructions issued per FU type, per thread (Count)
system.cpu.statIssuedInstType_0::SimdSha1Hash2            0      0.00%     63.76% # Number of instructions issued per FU type, per thread (Count)
system.cpu.statIssuedInstType_0::SimdSha256Hash            0      0.00%     63.76% # Number of instructions issued per FU type, per thread (Count)
system.cpu.statIssuedInstType_0::SimdSha256Hash2            0      0.00%     63.76% # Number of instructions issued per FU type, per thread (Count)
system.cpu.statIssuedInstType_0::SimdShaSigma2            0      0.00%     63.76% # Number of instructions issued per FU type, per thread (Count)
system.cpu.statIssuedInstType_0::SimdShaSigma3            0      0.00%     63.76% # Number of instructions issued per FU type, per thread (Count)
system.cpu.statIssuedInstType_0::SimdPredAlu            0      0.00%     63.76% # Number of instructions issued per FU type, per thread (Count)
system.cpu.statIssuedInstType_0::MemRead     56590400     23.38%     87.13% # Number of instructions issued per FU type, per thread (Count)
system.cpu.statIssuedInstType_0::MemWrite     31152964     12.87%    100.00% # Number of instructions issued per FU type, per thread (Count)
system.cpu.statIssuedInstType_0::FloatMemRead            0      0.00%    100.00% # Number of instructions issued per FU type, per thread (Count)
system.cpu.statIssuedInstType_0::FloatMemWrite            0      0.00%    100.00% # Number of instructions issued per FU type, per thread (Count)
system.cpu.statIssuedInstType_0::IprAccess            0      0.00%    100.00% # Number of instructions issued per FU type, per thread (Count)
system.cpu.statIssuedInstType_0::InstPrefetch            0      0.00%    100.00% # Number of instructions issued per FU type, per thread (Count)
system.cpu.statIssuedInstType_0::total      242088212                       # Number of instructions issued per FU type, per thread (Count)
system.cpu.issueRate                         2.482450                       # Inst issue rate ((Count/Cycle))
system.cpu.fuBusy                             3308206                       # FU busy when requested (Count)
system.cpu.fuBusyRate                        0.013665                       # FU busy rate (busy events/executed inst) ((Count/Count))
system.cpu.intInstQueueReads                584916943                       # Number of integer instruction queue reads (Count)
system.cpu.intInstQueueWrites               287480056                       # Number of integer instruction queue writes (Count)
system.cpu.intInstQueueWakeupAccesses       235199764                       # Number of integer instruction queue wakeup accesses (Count)
system.cpu.fpInstQueueReads                         0                       # Number of floating instruction queue reads (Count)
system.cpu.fpInstQueueWrites                        0                       # Number of floating instruction queue writes (Count)
system.cpu.fpInstQueueWakeupAccesses                0                       # Number of floating instruction queue wakeup accesses (Count)
system.cpu.vecInstQueueReads                        0                       # Number of vector instruction queue reads (Count)
system.cpu.vecInstQueueWrites                       0                       # Number of vector instruction queue writes (Count)
system.cpu.vecInstQueueWakeupAccesses               0                       # Number of vector instruction queue wakeup accesses (Count)
system.cpu.intAluAccesses                   245396366                       # Number of integer alu accesses (Count)
system.cpu.fpAluAccesses                            0                       # Number of floating point alu accesses (Count)
system.cpu.vecAluAccesses                           0                       # Number of vector alu accesses (Count)
system.cpu.numInsts                         239876549                       # Number of executed instructions (Count)
system.cpu.numLoadInsts                      55745914                       # Number of load instructions executed (Count)
system.cpu.numSquashedInsts                   2211661                       # Number of squashed instructions skipped in execute (Count)
system.cpu.numSwp                                   0                       # Number of swp insts executed (Count)
system.cpu.numNop                                   0                       # Number of nop insts executed (Count)
system.cpu.numRefs                           86468360                       # Number of memory reference insts executed (Count)
system.cpu.numBranches                       38698468                       # Number of branches executed (Count)
system.cpu.numStoreInsts                     30722446                       # Number of stores executed (Count)
system.cpu.numRate                           2.459771                       # Inst execution rate ((Count/Cycle))
system.cpu.timesIdled                            1990                       # Number of times that the entire CPU went into an idle state and unscheduled itself (Count)
system.cpu.idleCycles                           89269                       # Total number of cycles that the CPU has spent unscheduled due to idling (Cycle)
system.cpu.committedInsts                   200000006                       # Number of Instructions Simulated (Count)
system.cpu.committedOps                     227162985                       # Number of Ops (including micro ops) Simulated (Count)
system.cpu.cpi                               0.487599                       # CPI: Cycles Per Instruction ((Cycle/Count))
system.cpu.totalCpi                          0.487599                       # CPI: Total CPI of All Threads ((Cycle/Count))
system.cpu.ipc                               2.050864                       # IPC: Instructions Per Cycle ((Count/Cycle))
system.cpu.totalIpc                          2.050864                       # IPC: Total IPC of All Threads ((Count/Cycle))
system.cpu.intRegfileReads                  273947652                       # Number of integer regfile reads (Count)
system.cpu.intRegfileWrites                 139911043                       # Number of integer regfile writes (Count)
system.cpu.vecRegfileReads                         16                       # number of vector regfile reads (Count)
system.cpu.ccRegfileReads                   872090724                       # number of cc regfile reads (Count)
system.cpu.ccRegfileWrites                  121185720                       # number of cc regfile writes (Count)
system.cpu.miscRegfileReads                  81545808                       # number of misc regfile reads (Count)
system.cpu.miscRegfileWrites                     1653                       # number of misc regfile writes (Count)
system.cpu.MemDepUnit__0.insertedLoads       55905293                       # Number of loads inserted to the mem dependence unit. (Count)
system.cpu.MemDepUnit__0.insertedStores      32347867                       # Number of stores inserted to the mem dependence unit. (Count)
system.cpu.MemDepUnit__0.conflictingLoads      8848987                       # Number of conflicting loads. (Count)
system.cpu.MemDepUnit__0.conflictingStores      5328295                       # Number of conflicting stores. (Count)
system.cpu.MemDepUnit__1.insertedLoads              0                       # Number of loads inserted to the mem dependence unit. (Count)
system.cpu.MemDepUnit__1.insertedStores             0                       # Number of stores inserted to the mem dependence unit. (Count)
system.cpu.MemDepUnit__1.conflictingLoads            0                       # Number of conflicting loads. (Count)
system.cpu.MemDepUnit__1.conflictingStores            0                       # Number of conflicting stores. (Count)
system.cpu.MemDepUnit__2.insertedLoads              0                       # Number of loads inserted to the mem dependence unit. (Count)
system.cpu.MemDepUnit__2.insertedStores             0                       # Number of stores inserted to the mem dependence unit. (Count)
system.cpu.MemDepUnit__2.conflictingLoads            0                       # Number of conflicting loads. (Count)
system.cpu.MemDepUnit__2.conflictingStores            0                       # Number of conflicting stores. (Count)
system.cpu.MemDepUnit__3.insertedLoads              0                       # Number of loads inserted to the mem dependence unit. (Count)
system.cpu.MemDepUnit__3.insertedStores             0                       # Number of stores inserted to the mem dependence unit. (Count)
system.cpu.MemDepUnit__3.conflictingLoads            0                       # Number of conflicting loads. (Count)
system.cpu.MemDepUnit__3.conflictingStores            0                       # Number of conflicting stores. (Count)
system.cpu.branchPred.lookups                48547228                       # Number of BP lookups (Count)
system.cpu.branchPred.condPredicted          36926739                       # Number of conditional branches predicted (Count)
system.cpu.branchPred.condIncorrect           1452277                       # Number of conditional branches incorrect (Count)
system.cpu.branchPred.BTBLookups             15007871                       # Number of BTB lookups (Count)
system.cpu.branchPred.BTBHits                12994501                       # Number of BTB hits (Count)
system.cpu.branchPred.BTBHitRatio            0.865846                       # BTB Hit Ratio (Ratio)
system.cpu.branchPred.RASUsed                 5140162                       # Number of times the RAS was used to get a target. (Count)
system.cpu.branchPred.RASIncorrect               1276                       # Number of incorrect RAS predictions. (Count)
system.cpu.branchPred.indirectLookups          518548                       # Number of indirect predictor lookups. (Count)
system.cpu.branchPred.indirectHits             515404                       # Number of indirect target hits. (Count)
system.cpu.branchPred.indirectMisses             3144                       # Number of indirect misses. (Count)
system.cpu.branchPred.indirectMispredicted          503                       # Number of mispredicted indirect branches. (Count)
system.cpu.commit.commitSquashedInsts        30134176                       # The number of squashed insts skipped by commit (Count)
system.cpu.commit.commitNonSpecStalls            1035                       # The number of times commit has been forced to stall to communicate backwards (Count)
system.cpu.commit.branchMispredicts            937672                       # The number of times a branch was mispredicted (Count)
system.cpu.commit.numCommittedDist::samples     93298874                       # Number of insts commited each cycle (Count)
system.cpu.commit.numCommittedDist::mean     2.434788                       # Number of insts commited each cycle (Count)
system.cpu.commit.numCommittedDist::stdev     2.755264                       # Number of insts commited each cycle (Count)
system.cpu.commit.numCommittedDist::underflows            0      0.00%      0.00% # Number of insts commited each cycle (Count)
system.cpu.commit.numCommittedDist::0        23852855     25.57%     25.57% # Number of insts commited each cycle (Count)
system.cpu.commit.numCommittedDist::1        27852081     29.85%     55.42% # Number of insts commited each cycle (Count)
system.cpu.commit.numCommittedDist::2        14384060     15.42%     70.84% # Number of insts commited each cycle (Count)
system.cpu.commit.numCommittedDist::3         3520830      3.77%     74.61% # Number of insts commited each cycle (Count)
system.cpu.commit.numCommittedDist::4         4545106      4.87%     79.48% # Number of insts commited each cycle (Count)
system.cpu.commit.numCommittedDist::5         2373548      2.54%     82.03% # Number of insts commited each cycle (Count)
system.cpu.commit.numCommittedDist::6         1197105      1.28%     83.31% # Number of insts commited each cycle (Count)
system.cpu.commit.numCommittedDist::7         1836812      1.97%     85.28% # Number of insts commited each cycle (Count)
system.cpu.commit.numCommittedDist::8        13736477     14.72%    100.00% # Number of insts commited each cycle (Count)
system.cpu.commit.numCommittedDist::overflows            0      0.00%    100.00% # Number of insts commited each cycle (Count)
system.cpu.commit.numCommittedDist::min_value            0                       # Number of insts commited each cycle (Count)
system.cpu.commit.numCommittedDist::max_value            8                       # Number of insts commited each cycle (Count)
system.cpu.commit.numCommittedDist::total     93298874                       # Number of insts commited each cycle (Count)
system.cpu.commit.instsCommitted            200000006                       # Number of instructions committed (Count)
system.cpu.commit.opsCommitted              227162985                       # Number of ops (including micro ops) committed (Count)
system.cpu.commit.memRefs                    79987457                       # Number of memory references committed (Count)
system.cpu.commit.loads                      49773152                       # Number of loads committed (Count)
system.cpu.commit.amos                              0                       # Number of atomic instructions committed (Count)
system.cpu.commit.membars                         417                       # Number of memory barriers committed (Count)
system.cpu.commit.branches                   37456961                       # Number of branches committed (Count)
system.cpu.commit.vectorInstructions                0                       # Number of committed Vector instructions. (Count)
system.cpu.commit.floating                          0                       # Number of committed floating point instructions. (Count)
system.cpu.commit.integer                   197759243                       # Number of committed integer instructions. (Count)
system.cpu.commit.functionCalls               3769269                       # Number of function calls committed. (Count)
system.cpu.commit.committedInstType_0::No_OpClass            0      0.00%      0.00% # Class of committed instruction (Count)
system.cpu.commit.committedInstType_0::IntAlu    146071351     64.30%     64.30% # Class of committed instruction (Count)
system.cpu.commit.committedInstType_0::IntMult      1104177      0.49%     64.79% # Class of committed instruction (Count)
system.cpu.commit.committedInstType_0::IntDiv            0      0.00%     64.79% # Class of committed instruction (Count)
system.cpu.commit.committedInstType_0::FloatAdd            0      0.00%     64.79% # Class of committed instruction (Count)
system.cpu.commit.committedInstType_0::FloatCmp            0      0.00%     64.79% # Class of committed instruction (Count)
system.cpu.commit.committedInstType_0::FloatCvt            0      0.00%     64.79% # Class of committed instruction (Count)
system.cpu.commit.committedInstType_0::FloatMult            0      0.00%     64.79% # Class of committed instruction (Count)
system.cpu.commit.committedInstType_0::FloatMultAcc            0      0.00%     64.79% # Class of committed instruction (Count)
system.cpu.commit.committedInstType_0::FloatDiv            0      0.00%     64.79% # Class of committed instruction (Count)
system.cpu.commit.committedInstType_0::FloatMisc            0      0.00%     64.79% # Class of committed instruction (Count)
system.cpu.commit.committedInstType_0::FloatSqrt            0      0.00%     64.79% # Class of committed instruction (Count)
system.cpu.commit.committedInstType_0::SimdAdd            0      0.00%     64.79% # Class of committed instruction (Count)
system.cpu.commit.committedInstType_0::SimdAddAcc            0      0.00%     64.79% # Class of committed instruction (Count)
system.cpu.commit.committedInstType_0::SimdAlu            0      0.00%     64.79% # Class of committed instruction (Count)
system.cpu.commit.committedInstType_0::SimdCmp            0      0.00%     64.79% # Class of committed instruction (Count)
system.cpu.commit.committedInstType_0::SimdCvt            0      0.00%     64.79% # Class of committed instruction (Count)
system.cpu.commit.committedInstType_0::SimdMisc            0      0.00%     64.79% # Class of committed instruction (Count)
system.cpu.commit.committedInstType_0::SimdMult            0      0.00%     64.79% # Class of committed instruction (Count)
system.cpu.commit.committedInstType_0::SimdMultAcc            0      0.00%     64.79% # Class of committed instruction (Count)
system.cpu.commit.committedInstType_0::SimdShift            0      0.00%     64.79% # Class of committed instruction (Count)
system.cpu.commit.committedInstType_0::SimdShiftAcc            0      0.00%     64.79% # Class of committed instruction (Count)
system.cpu.commit.committedInstType_0::SimdDiv            0      0.00%     64.79% # Class of committed instruction (Count)
system.cpu.commit.committedInstType_0::SimdSqrt            0      0.00%     64.79% # Class of committed instruction (Count)
system.cpu.commit.committedInstType_0::SimdFloatAdd            0      0.00%     64.79% # Class of committed instruction (Count)
system.cpu.commit.committedInstType_0::SimdFloatAlu            0      0.00%     64.79% # Class of committed instruction (Count)
system.cpu.commit.committedInstType_0::SimdFloatCmp            0      0.00%     64.79% # Class of committed instruction (Count)
system.cpu.commit.committedInstType_0::SimdFloatCvt            0      0.00%     64.79% # Class of committed instruction (Count)
system.cpu.commit.committedInstType_0::SimdFloatDiv            0      0.00%     64.79% # Class of committed instruction (Count)
system.cpu.commit.committedInstType_0::SimdFloatMisc            0      0.00%     64.79% # Class of committed instruction (Count)
system.cpu.commit.committedInstType_0::SimdFloatMult            0      0.00%     64.79% # Class of committed instruction (Count)
system.cpu.commit.committedInstType_0::SimdFloatMultAcc            0      0.00%     64.79% # Class of committed instruction (Count)
system.cpu.commit.committedInstType_0::SimdFloatSqrt            0      0.00%     64.79% # Class of committed instruction (Count)
system.cpu.commit.committedInstType_0::SimdReduceAdd            0      0.00%     64.79% # Class of committed instruction (Count)
system.cpu.commit.committedInstType_0::SimdReduceAlu            0      0.00%     64.79% # Class of committed instruction (Count)
system.cpu.commit.committedInstType_0::SimdReduceCmp            0      0.00%     64.79% # Class of committed instruction (Count)
system.cpu.commit.committedInstType_0::SimdFloatReduceAdd            0      0.00%     64.79% # Class of committed instruction (Count)
system.cpu.commit.committedInstType_0::SimdFloatReduceCmp            0      0.00%     64.79% # Class of committed instruction (Count)
system.cpu.commit.committedInstType_0::SimdAes            0      0.00%     64.79% # Class of committed instruction (Count)
system.cpu.commit.committedInstType_0::SimdAesMix            0      0.00%     64.79% # Class of committed instruction (Count)
system.cpu.commit.committedInstType_0::SimdSha1Hash            0      0.00%     64.79% # Class of committed instruction (Count)
system.cpu.commit.committedInstType_0::SimdSha1Hash2            0      0.00%     64.79% # Class of committed instruction (Count)
system.cpu.commit.committedInstType_0::SimdSha256Hash            0      0.00%     64.79% # Class of committed instruction (Count)
system.cpu.commit.committedInstType_0::SimdSha256Hash2            0      0.00%     64.79% # Class of committed instruction (Count)
system.cpu.commit.committedInstType_0::SimdShaSigma2            0      0.00%     64.79% # Class of committed instruction (Count)
system.cpu.commit.committedInstType_0::SimdShaSigma3            0      0.00%     64.79% # Class of committed instruction (Count)
system.cpu.commit.committedInstType_0::SimdPredAlu            0      0.00%     64.79% # Class of committed instruction (Count)
system.cpu.commit.committedInstType_0::MemRead     49773152     21.91%     86.70% # Class of committed instruction (Count)
system.cpu.commit.committedInstType_0::MemWrite     30214305     13.30%    100.00% # Class of committed instruction (Count)
system.cpu.commit.committedInstType_0::FloatMemRead            0      0.00%    100.00% # Class of committed instruction (Count)
system.cpu.commit.committedInstType_0::FloatMemWrite            0      0.00%    100.00% # Class of committed instruction (Count)
system.cpu.commit.committedInstType_0::IprAccess            0      0.00%    100.00% # Class of committed instruction (Count)
system.cpu.commit.committedInstType_0::InstPrefetch            0      0.00%    100.00% # Class of committed instruction (Count)
system.cpu.commit.committedInstType_0::total    227162985                       # Class of committed instruction (Count)
system.cpu.commit.commitEligibleSamples      13736477                       # number cycles where commit BW limit reached (Cycle)
system.cpu.dcache.demandHits::cpu.data       74300629                       # number of demand (read+write) hits (Count)
system.cpu.dcache.demandHits::total          74300629                       # number of demand (read+write) hits (Count)
system.cpu.dcache.overallHits::cpu.data      74300629                       # number of overall hits (Count)
system.cpu.dcache.overallHits::total         74300629                       # number of overall hits (Count)
system.cpu.dcache.demandMisses::cpu.data       396311                       # number of demand (read+write) misses (Count)
system.cpu.dcache.demandMisses::total          396311                       # number of demand (read+write) misses (Count)
system.cpu.dcache.overallMisses::cpu.data       396311                       # number of overall misses (Count)
system.cpu.dcache.overallMisses::total         396311                       # number of overall misses (Count)
system.cpu.dcache.demandMissLatency::cpu.data  28143022978                       # number of demand (read+write) miss ticks (Tick)
system.cpu.dcache.demandMissLatency::total  28143022978                       # number of demand (read+write) miss ticks (Tick)
system.cpu.dcache.overallMissLatency::cpu.data  28143022978                       # number of overall miss ticks (Tick)
system.cpu.dcache.overallMissLatency::total  28143022978                       # number of overall miss ticks (Tick)
system.cpu.dcache.demandAccesses::cpu.data     74696940                       # number of demand (read+write) accesses (Count)
system.cpu.dcache.demandAccesses::total      74696940                       # number of demand (read+write) accesses (Count)
system.cpu.dcache.overallAccesses::cpu.data     74696940                       # number of overall (read+write) accesses (Count)
system.cpu.dcache.overallAccesses::total     74696940                       # number of overall (read+write) accesses (Count)
system.cpu.dcache.demandMissRate::cpu.data     0.005306                       # miss rate for demand accesses (Ratio)
system.cpu.dcache.demandMissRate::total      0.005306                       # miss rate for demand accesses (Ratio)
system.cpu.dcache.overallMissRate::cpu.data     0.005306                       # miss rate for overall accesses (Ratio)
system.cpu.dcache.overallMissRate::total     0.005306                       # miss rate for overall accesses (Ratio)
system.cpu.dcache.demandAvgMissLatency::cpu.data 71012.469949                       # average overall miss latency in ticks ((Tick/Count))
system.cpu.dcache.demandAvgMissLatency::total 71012.469949                       # average overall miss latency in ticks ((Tick/Count))
system.cpu.dcache.overallAvgMissLatency::cpu.data 71012.469949                       # average overall miss latency ((Tick/Count))
system.cpu.dcache.overallAvgMissLatency::total 71012.469949                       # average overall miss latency ((Tick/Count))
system.cpu.dcache.blockedCycles::no_mshrs         3836                       # number of cycles access was blocked (Cycle)
system.cpu.dcache.blockedCycles::no_targets          348                       # number of cycles access was blocked (Cycle)
system.cpu.dcache.blockedCauses::no_mshrs           82                       # number of times access was blocked (Count)
system.cpu.dcache.blockedCauses::no_targets            4                       # number of times access was blocked (Count)
system.cpu.dcache.avgBlocked::no_mshrs      46.780488                       # average number of cycles each access was blocked ((Cycle/Count))
system.cpu.dcache.avgBlocked::no_targets           87                       # average number of cycles each access was blocked ((Cycle/Count))
system.cpu.dcache.writebacks::writebacks        31724                       # number of writebacks (Count)
system.cpu.dcache.writebacks::total             31724                       # number of writebacks (Count)
system.cpu.dcache.demandMshrHits::cpu.data       343805                       # number of demand (read+write) MSHR hits (Count)
system.cpu.dcache.demandMshrHits::total        343805                       # number of demand (read+write) MSHR hits (Count)
system.cpu.dcache.overallMshrHits::cpu.data       343805                       # number of overall MSHR hits (Count)
system.cpu.dcache.overallMshrHits::total       343805                       # number of overall MSHR hits (Count)
system.cpu.dcache.demandMshrMisses::cpu.data        52506                       # number of demand (read+write) MSHR misses (Count)
system.cpu.dcache.demandMshrMisses::total        52506                       # number of demand (read+write) MSHR misses (Count)
system.cpu.dcache.overallMshrMisses::cpu.data        52506                       # number of overall MSHR misses (Count)
system.cpu.dcache.overallMshrMisses::total        52506                       # number of overall MSHR misses (Count)
system.cpu.dcache.demandMshrMissLatency::cpu.data   3623937492                       # number of demand (read+write) MSHR miss ticks (Tick)
system.cpu.dcache.demandMshrMissLatency::total   3623937492                       # number of demand (read+write) MSHR miss ticks (Tick)
system.cpu.dcache.overallMshrMissLatency::cpu.data   3623937492                       # number of overall MSHR miss ticks (Tick)
system.cpu.dcache.overallMshrMissLatency::total   3623937492                       # number of overall MSHR miss ticks (Tick)
system.cpu.dcache.demandMshrMissRate::cpu.data     0.000703                       # mshr miss ratio for demand accesses (Ratio)
system.cpu.dcache.demandMshrMissRate::total     0.000703                       # mshr miss ratio for demand accesses (Ratio)
system.cpu.dcache.overallMshrMissRate::cpu.data     0.000703                       # mshr miss ratio for overall accesses (Ratio)
system.cpu.dcache.overallMshrMissRate::total     0.000703                       # mshr miss ratio for overall accesses (Ratio)
system.cpu.dcache.demandAvgMshrMissLatency::cpu.data 69019.492858                       # average overall mshr miss latency ((Tick/Count))
system.cpu.dcache.demandAvgMshrMissLatency::total 69019.492858                       # average overall mshr miss latency ((Tick/Count))
system.cpu.dcache.overallAvgMshrMissLatency::cpu.data 69019.492858                       # average overall mshr miss latency ((Tick/Count))
system.cpu.dcache.overallAvgMshrMissLatency::total 69019.492858                       # average overall mshr miss latency ((Tick/Count))
system.cpu.dcache.replacements                  51994                       # number of replacements (Count)
system.cpu.dcache.LoadLockedReq.hits::cpu.data          421                       # number of LoadLockedReq hits (Count)
system.cpu.dcache.LoadLockedReq.hits::total          421                       # number of LoadLockedReq hits (Count)
system.cpu.dcache.LoadLockedReq.misses::cpu.data           15                       # number of LoadLockedReq misses (Count)
system.cpu.dcache.LoadLockedReq.misses::total           15                       # number of LoadLockedReq misses (Count)
system.cpu.dcache.LoadLockedReq.missLatency::cpu.data       652000                       # number of LoadLockedReq miss ticks (Tick)
system.cpu.dcache.LoadLockedReq.missLatency::total       652000                       # number of LoadLockedReq miss ticks (Tick)
system.cpu.dcache.LoadLockedReq.accesses::cpu.data          436                       # number of LoadLockedReq accesses(hits+misses) (Count)
system.cpu.dcache.LoadLockedReq.accesses::total          436                       # number of LoadLockedReq accesses(hits+misses) (Count)
system.cpu.dcache.LoadLockedReq.missRate::cpu.data     0.034404                       # miss rate for LoadLockedReq accesses (Ratio)
system.cpu.dcache.LoadLockedReq.missRate::total     0.034404                       # miss rate for LoadLockedReq accesses (Ratio)
system.cpu.dcache.LoadLockedReq.avgMissLatency::cpu.data 43466.666667                       # average LoadLockedReq miss latency ((Tick/Count))
system.cpu.dcache.LoadLockedReq.avgMissLatency::total 43466.666667                       # average LoadLockedReq miss latency ((Tick/Count))
system.cpu.dcache.LoadLockedReq.mshrHits::cpu.data           15                       # number of LoadLockedReq MSHR hits (Count)
system.cpu.dcache.LoadLockedReq.mshrHits::total           15                       # number of LoadLockedReq MSHR hits (Count)
system.cpu.dcache.ReadReq.hits::cpu.data     44972697                       # number of ReadReq hits (Count)
system.cpu.dcache.ReadReq.hits::total        44972697                       # number of ReadReq hits (Count)
system.cpu.dcache.ReadReq.misses::cpu.data       110389                       # number of ReadReq misses (Count)
system.cpu.dcache.ReadReq.misses::total        110389                       # number of ReadReq misses (Count)
system.cpu.dcache.ReadReq.missLatency::cpu.data   4953584500                       # number of ReadReq miss ticks (Tick)
system.cpu.dcache.ReadReq.missLatency::total   4953584500                       # number of ReadReq miss ticks (Tick)
system.cpu.dcache.ReadReq.accesses::cpu.data     45083086                       # number of ReadReq accesses(hits+misses) (Count)
system.cpu.dcache.ReadReq.accesses::total     45083086                       # number of ReadReq accesses(hits+misses) (Count)
system.cpu.dcache.ReadReq.missRate::cpu.data     0.002449                       # miss rate for ReadReq accesses (Ratio)
system.cpu.dcache.ReadReq.missRate::total     0.002449                       # miss rate for ReadReq accesses (Ratio)
system.cpu.dcache.ReadReq.avgMissLatency::cpu.data 44873.895950                       # average ReadReq miss latency ((Tick/Count))
system.cpu.dcache.ReadReq.avgMissLatency::total 44873.895950                       # average ReadReq miss latency ((Tick/Count))
system.cpu.dcache.ReadReq.mshrHits::cpu.data        85639                       # number of ReadReq MSHR hits (Count)
system.cpu.dcache.ReadReq.mshrHits::total        85639                       # number of ReadReq MSHR hits (Count)
system.cpu.dcache.ReadReq.mshrMisses::cpu.data        24750                       # number of ReadReq MSHR misses (Count)
system.cpu.dcache.ReadReq.mshrMisses::total        24750                       # number of ReadReq MSHR misses (Count)
system.cpu.dcache.ReadReq.mshrMissLatency::cpu.data   1337949000                       # number of ReadReq MSHR miss ticks (Tick)
system.cpu.dcache.ReadReq.mshrMissLatency::total   1337949000                       # number of ReadReq MSHR miss ticks (Tick)
system.cpu.dcache.ReadReq.mshrMissRate::cpu.data     0.000549                       # mshr miss rate for ReadReq accesses (Ratio)
system.cpu.dcache.ReadReq.mshrMissRate::total     0.000549                       # mshr miss rate for ReadReq accesses (Ratio)
system.cpu.dcache.ReadReq.avgMshrMissLatency::cpu.data 54058.545455                       # average ReadReq mshr miss latency ((Tick/Count))
system.cpu.dcache.ReadReq.avgMshrMissLatency::total 54058.545455                       # average ReadReq mshr miss latency ((Tick/Count))
system.cpu.dcache.StoreCondReq.hits::cpu.data          413                       # number of StoreCondReq hits (Count)
system.cpu.dcache.StoreCondReq.hits::total          413                       # number of StoreCondReq hits (Count)
system.cpu.dcache.StoreCondReq.accesses::cpu.data          413                       # number of StoreCondReq accesses(hits+misses) (Count)
system.cpu.dcache.StoreCondReq.accesses::total          413                       # number of StoreCondReq accesses(hits+misses) (Count)
system.cpu.dcache.WriteReq.hits::cpu.data     29327932                       # number of WriteReq hits (Count)
system.cpu.dcache.WriteReq.hits::total       29327932                       # number of WriteReq hits (Count)
system.cpu.dcache.WriteReq.misses::cpu.data       285922                       # number of WriteReq misses (Count)
system.cpu.dcache.WriteReq.misses::total       285922                       # number of WriteReq misses (Count)
system.cpu.dcache.WriteReq.missLatency::cpu.data  23189438478                       # number of WriteReq miss ticks (Tick)
system.cpu.dcache.WriteReq.missLatency::total  23189438478                       # number of WriteReq miss ticks (Tick)
system.cpu.dcache.WriteReq.accesses::cpu.data     29613854                       # number of WriteReq accesses(hits+misses) (Count)
system.cpu.dcache.WriteReq.accesses::total     29613854                       # number of WriteReq accesses(hits+misses) (Count)
system.cpu.dcache.WriteReq.missRate::cpu.data     0.009655                       # miss rate for WriteReq accesses (Ratio)
system.cpu.dcache.WriteReq.missRate::total     0.009655                       # miss rate for WriteReq accesses (Ratio)
system.cpu.dcache.WriteReq.avgMissLatency::cpu.data 81104.072013                       # average WriteReq miss latency ((Tick/Count))
system.cpu.dcache.WriteReq.avgMissLatency::total 81104.072013                       # average WriteReq miss latency ((Tick/Count))
system.cpu.dcache.WriteReq.mshrHits::cpu.data       258166                       # number of WriteReq MSHR hits (Count)
system.cpu.dcache.WriteReq.mshrHits::total       258166                       # number of WriteReq MSHR hits (Count)
system.cpu.dcache.WriteReq.mshrMisses::cpu.data        27756                       # number of WriteReq MSHR misses (Count)
system.cpu.dcache.WriteReq.mshrMisses::total        27756                       # number of WriteReq MSHR misses (Count)
system.cpu.dcache.WriteReq.mshrMissLatency::cpu.data   2285988492                       # number of WriteReq MSHR miss ticks (Tick)
system.cpu.dcache.WriteReq.mshrMissLatency::total   2285988492                       # number of WriteReq MSHR miss ticks (Tick)
system.cpu.dcache.WriteReq.mshrMissRate::cpu.data     0.000937                       # mshr miss rate for WriteReq accesses (Ratio)
system.cpu.dcache.WriteReq.mshrMissRate::total     0.000937                       # mshr miss rate for WriteReq accesses (Ratio)
system.cpu.dcache.WriteReq.avgMshrMissLatency::cpu.data 82360.156074                       # average WriteReq mshr miss latency ((Tick/Count))
system.cpu.dcache.WriteReq.avgMshrMissLatency::total 82360.156074                       # average WriteReq mshr miss latency ((Tick/Count))
system.cpu.dcache.power_state.pwrStateResidencyTicks::UNDEFINED  48759929500                       # Cumulative time (in ticks) in various power states (Tick)
system.cpu.dcache.tags.tagsInUse           511.032418                       # Average ticks per tags in use ((Tick/Count))
system.cpu.dcache.tags.totalRefs             74353969                       # Total number of references to valid blocks. (Count)
system.cpu.dcache.tags.sampledRefs              52506                       # Sample count of references to valid blocks. (Count)
system.cpu.dcache.tags.avgRefs            1416.104236                       # Average number of references to valid blocks. ((Count/Count))
system.cpu.dcache.tags.warmupTick              148500                       # The tick when the warmup percentage was hit. (Tick)
system.cpu.dcache.tags.occupancies::cpu.data   511.032418                       # Average occupied blocks per tick, per requestor ((Count/Tick))
system.cpu.dcache.tags.avgOccs::cpu.data     0.998110                       # Average percentage of cache occupancy ((Ratio/Tick))
system.cpu.dcache.tags.avgOccs::total        0.998110                       # Average percentage of cache occupancy ((Ratio/Tick))
system.cpu.dcache.tags.occupanciesTaskId::1024          512                       # Occupied blocks per task id (Count)
system.cpu.dcache.tags.ageTaskId_1024::0            2                       # Occupied blocks per task id, per block age (Count)
system.cpu.dcache.tags.ageTaskId_1024::1           20                       # Occupied blocks per task id, per block age (Count)
system.cpu.dcache.tags.ageTaskId_1024::2          205                       # Occupied blocks per task id, per block age (Count)
system.cpu.dcache.tags.ageTaskId_1024::3          157                       # Occupied blocks per task id, per block age (Count)
system.cpu.dcache.tags.ageTaskId_1024::4          128                       # Occupied blocks per task id, per block age (Count)
system.cpu.dcache.tags.ratioOccsTaskId::1024            1                       # Ratio of occupied blocks and all blocks, per task id (Ratio)
system.cpu.dcache.tags.tagAccesses          149448084                       # Number of tag accesses (Count)
system.cpu.dcache.tags.dataAccesses         149448084                       # Number of data accesses (Count)
system.cpu.dcache.tags.power_state.pwrStateResidencyTicks::UNDEFINED  48759929500                       # Cumulative time (in ticks) in various power states (Tick)
system.cpu.decode.idleCycles                 31065331                       # Number of cycles decode is idle (Cycle)
system.cpu.decode.blockedCycles              19535772                       # Number of cycles decode is blocked (Cycle)
system.cpu.decode.runCycles                  40441078                       # Number of cycles decode is running (Cycle)
system.cpu.decode.unblockCycles               5446714                       # Number of cycles decode is unblocking (Cycle)
system.cpu.decode.squashCycles                 941696                       # Number of cycles decode is squashing (Cycle)
system.cpu.decode.branchResolved             13289918                       # Number of times decode resolved a branch (Count)
system.cpu.decode.branchMispred                514959                       # Number of times decode detected a branch misprediction (Count)
system.cpu.decode.decodedInsts              268817251                       # Number of instructions handled by decode (Count)
system.cpu.decode.squashedInsts                  4911                       # Number of squashed instructions handled by decode (Count)
system.cpu.fetch.icacheStallCycles           38415404                       # Number of cycles fetch is stalled on an Icache miss (Cycle)
system.cpu.fetch.insts                      251988984                       # Number of instructions fetch has processed (Count)
system.cpu.fetch.branches                    48547228                       # Number of branches that fetch encountered (Count)
system.cpu.fetch.predictedBranches           18650067                       # Number of branches that fetch has predicted taken (Count)
system.cpu.fetch.cycles                      57558331                       # Number of cycles fetch has run and was not squashing or blocked (Cycle)
system.cpu.fetch.squashCycles                 2912704                       # Number of cycles fetch has spent squashing (Cycle)
system.cpu.fetch.miscStallCycles                  157                       # Number of cycles fetch has spent waiting on interrupts, or bad addresses, or out of MSHRs (Cycle)
system.cpu.fetch.pendingTrapStallCycles           314                       # Number of stall cycles due to pending traps (Cycle)
system.cpu.fetch.icacheWaitRetryStallCycles           33                       # Number of stall cycles due to full MSHR (Cycle)
system.cpu.fetch.cacheLines                  36549370                       # Number of cache lines fetched (Count)
system.cpu.fetch.icacheSquashes                180739                       # Number of outstanding Icache misses that were squashed (Count)
system.cpu.fetch.nisnDist::samples           97430591                       # Number of instructions fetched each cycle (Total) (Count)
system.cpu.fetch.nisnDist::mean              2.923257                       # Number of instructions fetched each cycle (Total) (Count)
system.cpu.fetch.nisnDist::stdev             3.401878                       # Number of instructions fetched each cycle (Total) (Count)
system.cpu.fetch.nisnDist::underflows               0      0.00%      0.00% # Number of instructions fetched each cycle (Total) (Count)
system.cpu.fetch.nisnDist::0                 46862825     48.10%     48.10% # Number of instructions fetched each cycle (Total) (Count)
system.cpu.fetch.nisnDist::1                  5038168      5.17%     53.27% # Number of instructions fetched each cycle (Total) (Count)
system.cpu.fetch.nisnDist::2                  5977664      6.14%     59.41% # Number of instructions fetched each cycle (Total) (Count)
system.cpu.fetch.nisnDist::3                  1865246      1.91%     61.32% # Number of instructions fetched each cycle (Total) (Count)
system.cpu.fetch.nisnDist::4                  5053483      5.19%     66.51% # Number of instructions fetched each cycle (Total) (Count)
system.cpu.fetch.nisnDist::5                  4497569      4.62%     71.12% # Number of instructions fetched each cycle (Total) (Count)
system.cpu.fetch.nisnDist::6                  1919530      1.97%     73.09% # Number of instructions fetched each cycle (Total) (Count)
system.cpu.fetch.nisnDist::7                  1722422      1.77%     74.86% # Number of instructions fetched each cycle (Total) (Count)
system.cpu.fetch.nisnDist::8                 24493684     25.14%    100.00% # Number of instructions fetched each cycle (Total) (Count)
system.cpu.fetch.nisnDist::overflows                0      0.00%    100.00% # Number of instructions fetched each cycle (Total) (Count)
system.cpu.fetch.nisnDist::min_value                0                       # Number of instructions fetched each cycle (Total) (Count)
system.cpu.fetch.nisnDist::max_value                8                       # Number of instructions fetched each cycle (Total) (Count)
system.cpu.fetch.nisnDist::total             97430591                       # Number of instructions fetched each cycle (Total) (Count)
system.cpu.fetch.branchRate                  0.497819                       # Number of branch fetches per cycle (Ratio)
system.cpu.fetch.rate                        2.583976                       # Number of inst fetches per cycle ((Count/Cycle))
system.cpu.icache.demandHits::cpu.inst       36518938                       # number of demand (read+write) hits (Count)
system.cpu.icache.demandHits::total          36518938                       # number of demand (read+write) hits (Count)
system.cpu.icache.overallHits::cpu.inst      36518938                       # number of overall hits (Count)
system.cpu.icache.overallHits::total         36518938                       # number of overall hits (Count)
system.cpu.icache.demandMisses::cpu.inst        30430                       # number of demand (read+write) misses (Count)
system.cpu.icache.demandMisses::total           30430                       # number of demand (read+write) misses (Count)
system.cpu.icache.overallMisses::cpu.inst        30430                       # number of overall misses (Count)
system.cpu.icache.overallMisses::total          30430                       # number of overall misses (Count)
system.cpu.icache.demandMissLatency::cpu.inst    501984500                       # number of demand (read+write) miss ticks (Tick)
system.cpu.icache.demandMissLatency::total    501984500                       # number of demand (read+write) miss ticks (Tick)
system.cpu.icache.overallMissLatency::cpu.inst    501984500                       # number of overall miss ticks (Tick)
system.cpu.icache.overallMissLatency::total    501984500                       # number of overall miss ticks (Tick)
system.cpu.icache.demandAccesses::cpu.inst     36549368                       # number of demand (read+write) accesses (Count)
system.cpu.icache.demandAccesses::total      36549368                       # number of demand (read+write) accesses (Count)
system.cpu.icache.overallAccesses::cpu.inst     36549368                       # number of overall (read+write) accesses (Count)
system.cpu.icache.overallAccesses::total     36549368                       # number of overall (read+write) accesses (Count)
system.cpu.icache.demandMissRate::cpu.inst     0.000833                       # miss rate for demand accesses (Ratio)
system.cpu.icache.demandMissRate::total      0.000833                       # miss rate for demand accesses (Ratio)
system.cpu.icache.overallMissRate::cpu.inst     0.000833                       # miss rate for overall accesses (Ratio)
system.cpu.icache.overallMissRate::total     0.000833                       # miss rate for overall accesses (Ratio)
system.cpu.icache.demandAvgMissLatency::cpu.inst 16496.368715                       # average overall miss latency in ticks ((Tick/Count))
system.cpu.icache.demandAvgMissLatency::total 16496.368715                       # average overall miss latency in ticks ((Tick/Count))
system.cpu.icache.overallAvgMissLatency::cpu.inst 16496.368715                       # average overall miss latency ((Tick/Count))
system.cpu.icache.overallAvgMissLatency::total 16496.368715                       # average overall miss latency ((Tick/Count))
system.cpu.icache.blockedCycles::no_mshrs         1075                       # number of cycles access was blocked (Cycle)
system.cpu.icache.blockedCycles::no_targets            0                       # number of cycles access was blocked (Cycle)
system.cpu.icache.blockedCauses::no_mshrs           21                       # number of times access was blocked (Count)
system.cpu.icache.blockedCauses::no_targets            0                       # number of times access was blocked (Count)
system.cpu.icache.avgBlocked::no_mshrs      51.190476                       # average number of cycles each access was blocked ((Cycle/Count))
system.cpu.icache.avgBlocked::no_targets          nan                       # average number of cycles each access was blocked ((Cycle/Count))
system.cpu.icache.demandMshrHits::cpu.inst          918                       # number of demand (read+write) MSHR hits (Count)
system.cpu.icache.demandMshrHits::total           918                       # number of demand (read+write) MSHR hits (Count)
system.cpu.icache.overallMshrHits::cpu.inst          918                       # number of overall MSHR hits (Count)
system.cpu.icache.overallMshrHits::total          918                       # number of overall MSHR hits (Count)
system.cpu.icache.demandMshrMisses::cpu.inst        29512                       # number of demand (read+write) MSHR misses (Count)
system.cpu.icache.demandMshrMisses::total        29512                       # number of demand (read+write) MSHR misses (Count)
system.cpu.icache.overallMshrMisses::cpu.inst        29512                       # number of overall MSHR misses (Count)
system.cpu.icache.overallMshrMisses::total        29512                       # number of overall MSHR misses (Count)
system.cpu.icache.demandMshrMissLatency::cpu.inst    444780500                       # number of demand (read+write) MSHR miss ticks (Tick)
system.cpu.icache.demandMshrMissLatency::total    444780500                       # number of demand (read+write) MSHR miss ticks (Tick)
system.cpu.icache.overallMshrMissLatency::cpu.inst    444780500                       # number of overall MSHR miss ticks (Tick)
system.cpu.icache.overallMshrMissLatency::total    444780500                       # number of overall MSHR miss ticks (Tick)
system.cpu.icache.demandMshrMissRate::cpu.inst     0.000807                       # mshr miss ratio for demand accesses (Ratio)
system.cpu.icache.demandMshrMissRate::total     0.000807                       # mshr miss ratio for demand accesses (Ratio)
system.cpu.icache.overallMshrMissRate::cpu.inst     0.000807                       # mshr miss ratio for overall accesses (Ratio)
system.cpu.icache.overallMshrMissRate::total     0.000807                       # mshr miss ratio for overall accesses (Ratio)
system.cpu.icache.demandAvgMshrMissLatency::cpu.inst 15071.174438                       # average overall mshr miss latency ((Tick/Count))
system.cpu.icache.demandAvgMshrMissLatency::total 15071.174438                       # average overall mshr miss latency ((Tick/Count))
system.cpu.icache.overallAvgMshrMissLatency::cpu.inst 15071.174438                       # average overall mshr miss latency ((Tick/Count))
system.cpu.icache.overallAvgMshrMissLatency::total 15071.174438                       # average overall mshr miss latency ((Tick/Count))
system.cpu.icache.replacements                  29004                       # number of replacements (Count)
system.cpu.icache.ReadReq.hits::cpu.inst     36518938                       # number of ReadReq hits (Count)
system.cpu.icache.ReadReq.hits::total        36518938                       # number of ReadReq hits (Count)
system.cpu.icache.ReadReq.misses::cpu.inst        30430                       # number of ReadReq misses (Count)
system.cpu.icache.ReadReq.misses::total         30430                       # number of ReadReq misses (Count)
system.cpu.icache.ReadReq.missLatency::cpu.inst    501984500                       # number of ReadReq miss ticks (Tick)
system.cpu.icache.ReadReq.missLatency::total    501984500                       # number of ReadReq miss ticks (Tick)
system.cpu.icache.ReadReq.accesses::cpu.inst     36549368                       # number of ReadReq accesses(hits+misses) (Count)
system.cpu.icache.ReadReq.accesses::total     36549368                       # number of ReadReq accesses(hits+misses) (Count)
system.cpu.icache.ReadReq.missRate::cpu.inst     0.000833                       # miss rate for ReadReq accesses (Ratio)
system.cpu.icache.ReadReq.missRate::total     0.000833                       # miss rate for ReadReq accesses (Ratio)
system.cpu.icache.ReadReq.avgMissLatency::cpu.inst 16496.368715                       # average ReadReq miss latency ((Tick/Count))
system.cpu.icache.ReadReq.avgMissLatency::total 16496.368715                       # average ReadReq miss latency ((Tick/Count))
system.cpu.icache.ReadReq.mshrHits::cpu.inst          918                       # number of ReadReq MSHR hits (Count)
system.cpu.icache.ReadReq.mshrHits::total          918                       # number of ReadReq MSHR hits (Count)
system.cpu.icache.ReadReq.mshrMisses::cpu.inst        29512                       # number of ReadReq MSHR misses (Count)
system.cpu.icache.ReadReq.mshrMisses::total        29512                       # number of ReadReq MSHR misses (Count)
system.cpu.icache.ReadReq.mshrMissLatency::cpu.inst    444780500                       # number of ReadReq MSHR miss ticks (Tick)
system.cpu.icache.ReadReq.mshrMissLatency::total    444780500                       # number of ReadReq MSHR miss ticks (Tick)
system.cpu.icache.ReadReq.mshrMissRate::cpu.inst     0.000807                       # mshr miss rate for ReadReq accesses (Ratio)
system.cpu.icache.ReadReq.mshrMissRate::total     0.000807                       # mshr miss rate for ReadReq accesses (Ratio)
system.cpu.icache.ReadReq.avgMshrMissLatency::cpu.inst 15071.174438                       # average ReadReq mshr miss latency ((Tick/Count))
system.cpu.icache.ReadReq.avgMshrMissLatency::total 15071.174438                       # average ReadReq mshr miss latency ((Tick/Count))
system.cpu.icache.power_state.pwrStateResidencyTicks::UNDEFINED  48759929500                       # Cumulative time (in ticks) in various power states (Tick)
system.cpu.icache.tags.tagsInUse           507.552169                       # Average ticks per tags in use ((Tick/Count))
system.cpu.icache.tags.totalRefs             36548450                       # Total number of references to valid blocks. (Count)
system.cpu.icache.tags.sampledRefs              29512                       # Sample count of references to valid blocks. (Count)
system.cpu.icache.tags.avgRefs            1238.426742                       # Average number of references to valid blocks. ((Count/Count))
system.cpu.icache.tags.warmupTick               81500                       # The tick when the warmup percentage was hit. (Tick)
system.cpu.icache.tags.occupancies::cpu.inst   507.552169                       # Average occupied blocks per tick, per requestor ((Count/Tick))
system.cpu.icache.tags.avgOccs::cpu.inst     0.991313                       # Average percentage of cache occupancy ((Ratio/Tick))
system.cpu.icache.tags.avgOccs::total        0.991313                       # Average percentage of cache occupancy ((Ratio/Tick))
system.cpu.icache.tags.occupanciesTaskId::1024          508                       # Occupied blocks per task id (Count)
system.cpu.icache.tags.ageTaskId_1024::1            5                       # Occupied blocks per task id, per block age (Count)
system.cpu.icache.tags.ageTaskId_1024::2            4                       # Occupied blocks per task id, per block age (Count)
system.cpu.icache.tags.ageTaskId_1024::3            3                       # Occupied blocks per task id, per block age (Count)
system.cpu.icache.tags.ageTaskId_1024::4          496                       # Occupied blocks per task id, per block age (Count)
system.cpu.icache.tags.ratioOccsTaskId::1024     0.992188                       # Ratio of occupied blocks and all blocks, per task id (Ratio)
system.cpu.icache.tags.tagAccesses           73128248                       # Number of tag accesses (Count)
system.cpu.icache.tags.dataAccesses          73128248                       # Number of data accesses (Count)
system.cpu.icache.tags.power_state.pwrStateResidencyTicks::UNDEFINED  48759929500                       # Cumulative time (in ticks) in various power states (Tick)
system.cpu.iew.idleCycles                           0                       # Number of cycles IEW is idle (Cycle)
system.cpu.iew.squashCycles                    941696                       # Number of cycles IEW is squashing (Cycle)
system.cpu.iew.blockCycles                    3226858                       # Number of cycles IEW is blocking (Cycle)
system.cpu.iew.unblockCycles                    30802                       # Number of cycles IEW is unblocking (Cycle)
system.cpu.iew.dispatchedInsts              257319335                       # Number of instructions dispatched to IQ (Count)
system.cpu.iew.dispSquashedInsts                 3260                       # Number of squashed instructions skipped by dispatch (Count)
system.cpu.iew.dispLoadInsts                 55905293                       # Number of dispatched load instructions (Count)
system.cpu.iew.dispStoreInsts                32347867                       # Number of dispatched store instructions (Count)
system.cpu.iew.dispNonSpecInsts                   767                       # Number of dispatched non-speculative instructions (Count)
system.cpu.iew.iqFullEvents                      1667                       # Number of times the IQ has become full, causing a stall (Count)
system.cpu.iew.lsqFullEvents                    28996                       # Number of times the LSQ has become full, causing a stall (Count)
system.cpu.iew.memOrderViolationEvents           4453                       # Number of memory order violations (Count)
system.cpu.iew.predictedTakenIncorrect         127999                       # Number of branches that were predicted taken incorrectly (Count)
system.cpu.iew.predictedNotTakenIncorrect      1059500                       # Number of branches that were predicted not taken incorrectly (Count)
system.cpu.iew.branchMispredicts              1187499                       # Number of branch mispredicts detected at execute (Count)
system.cpu.iew.instsToCommit                235467042                       # Cumulative count of insts sent to commit (Count)
system.cpu.iew.writebackCount               235199764                       # Cumulative count of insts written-back (Count)
system.cpu.iew.producerInst                 142575033                       # Number of instructions producing a value (Count)
system.cpu.iew.consumerInst                 250394081                       # Number of instructions consuming a value (Count)
system.cpu.iew.wbRate                        2.411814                       # Insts written-back per cycle ((Count/Cycle))
system.cpu.iew.wbFanout                      0.569403                       # Average fanout of values written-back ((Count/Count))
system.cpu.lsq0.forwLoads                     6270055                       # Number of loads that had data forwarded from stores (Count)
system.cpu.lsq0.squashedLoads                 6132141                       # Number of loads squashed (Count)
system.cpu.lsq0.ignoredResponses                 7419                       # Number of memory responses ignored because the instruction is squashed (Count)
system.cpu.lsq0.memOrderViolation                4453                       # Number of memory ordering violations (Count)
system.cpu.lsq0.squashedStores                2133562                       # Number of stores squashed (Count)
system.cpu.lsq0.rescheduledLoads              4132586                       # Number of loads that were rescheduled (Count)
system.cpu.lsq0.blockedByCache                     70                       # Number of times an access to memory failed due to the cache being blocked (Count)
system.cpu.lsq0.loadToUse::samples           49773152                       # Distribution of cycle latency between the first time a load is issued and its completion (Unspecified)
system.cpu.lsq0.loadToUse::mean              3.931627                       # Distribution of cycle latency between the first time a load is issued and its completion (Unspecified)
system.cpu.lsq0.loadToUse::stdev             6.759932                       # Distribution of cycle latency between the first time a load is issued and its completion (Unspecified)
system.cpu.lsq0.loadToUse::0-9               47964600     96.37%     96.37% # Distribution of cycle latency between the first time a load is issued and its completion (Unspecified)
system.cpu.lsq0.loadToUse::10-19              1068908      2.15%     98.51% # Distribution of cycle latency between the first time a load is issued and its completion (Unspecified)
system.cpu.lsq0.loadToUse::20-29               584125      1.17%     99.69% # Distribution of cycle latency between the first time a load is issued and its completion (Unspecified)
system.cpu.lsq0.loadToUse::30-39                89291      0.18%     99.87% # Distribution of cycle latency between the first time a load is issued and its completion (Unspecified)
system.cpu.lsq0.loadToUse::40-49                 4195      0.01%     99.88% # Distribution of cycle latency between the first time a load is issued and its completion (Unspecified)
system.cpu.lsq0.loadToUse::50-59                 2346      0.00%     99.88% # Distribution of cycle latency between the first time a load is issued and its completion (Unspecified)
system.cpu.lsq0.loadToUse::60-69                 5644      0.01%     99.89% # Distribution of cycle latency between the first time a load is issued and its completion (Unspecified)
system.cpu.lsq0.loadToUse::70-79                10553      0.02%     99.91% # Distribution of cycle latency between the first time a load is issued and its completion (Unspecified)
system.cpu.lsq0.loadToUse::80-89                 4762      0.01%     99.92% # Distribution of cycle latency between the first time a load is issued and its completion (Unspecified)
system.cpu.lsq0.loadToUse::90-99                 1556      0.00%     99.93% # Distribution of cycle latency between the first time a load is issued and its completion (Unspecified)
system.cpu.lsq0.loadToUse::100-109                812      0.00%     99.93% # Distribution of cycle latency between the first time a load is issued and its completion (Unspecified)
system.cpu.lsq0.loadToUse::110-119                441      0.00%     99.93% # Distribution of cycle latency between the first time a load is issued and its completion (Unspecified)
system.cpu.lsq0.loadToUse::120-129               5470      0.01%     99.94% # Distribution of cycle latency between the first time a load is issued and its completion (Unspecified)
system.cpu.lsq0.loadToUse::130-139               8548      0.02%     99.96% # Distribution of cycle latency between the first time a load is issued and its completion (Unspecified)
system.cpu.lsq0.loadToUse::140-149                520      0.00%     99.96% # Distribution of cycle latency between the first time a load is issued and its completion (Unspecified)
system.cpu.lsq0.loadToUse::150-159                874      0.00%     99.96% # Distribution of cycle latency between the first time a load is issued and its completion (Unspecified)
system.cpu.lsq0.loadToUse::160-169                643      0.00%     99.96% # Distribution of cycle latency between the first time a load is issued and its completion (Unspecified)
system.cpu.lsq0.loadToUse::170-179                254      0.00%     99.96% # Distribution of cycle latency between the first time a load is issued and its completion (Unspecified)
system.cpu.lsq0.loadToUse::180-189               7439      0.01%     99.98% # Distribution of cycle latency between the first time a load is issued and its completion (Unspecified)
[...]
system.mem_ctrl.dram.perBankRdBursts::7          1317                       # Per bank write bursts (Count)
system.mem_ctrl.dram.perBankRdBursts::8          1360                       # Per bank write bursts (Count)
system.mem_ctrl.dram.perBankRdBursts::9          1346                       # Per bank write bursts (Count)
system.mem_ctrl.dram.perBankRdBursts::10         1358                       # Per bank write bursts (Count)
system.mem_ctrl.dram.perBankRdBursts::11         1306                       # Per bank write bursts (Count)
system.mem_ctrl.dram.perBankRdBursts::12         1297                       # Per bank write bursts (Count)
system.mem_ctrl.dram.perBankRdBursts::13         1288                       # Per bank write bursts (Count)
system.mem_ctrl.dram.perBankRdBursts::14         1303                       # Per bank write bursts (Count)
system.mem_ctrl.dram.perBankRdBursts::15         1348                       # Per bank write bursts (Count)
system.mem_ctrl.dram.perBankRdBursts::16         1310                       # Per bank write bursts (Count)
system.mem_ctrl.dram.perBankRdBursts::17         1314                       # Per bank write bursts (Count)
system.mem_ctrl.dram.perBankRdBursts::18         1352                       # Per bank write bursts (Count)
system.mem_ctrl.dram.perBankRdBursts::19         1297                       # Per bank write bursts (Count)
system.mem_ctrl.dram.perBankRdBursts::20         1300                       # Per bank write bursts (Count)
system.mem_ctrl.dram.perBankRdBursts::21         1348                       # Per bank write bursts (Count)
system.mem_ctrl.dram.perBankRdBursts::22         1315                       # Per bank write bursts (Count)
system.mem_ctrl.dram.perBankRdBursts::23         1251                       # Per bank write bursts (Count)
system.mem_ctrl.dram.perBankRdBursts::24         1156                       # Per bank write bursts (Count)
system.mem_ctrl.dram.perBankRdBursts::25         1232                       # Per bank write bursts (Count)
system.mem_ctrl.dram.perBankRdBursts::26         1283                       # Per bank write bursts (Count)
system.mem_ctrl.dram.perBankRdBursts::27         1182                       # Per bank write bursts (Count)
system.mem_ctrl.dram.perBankRdBursts::28         1188                       # Per bank write bursts (Count)
system.mem_ctrl.dram.perBankRdBursts::29         1236                       # Per bank write bursts (Count)
system.mem_ctrl.dram.perBankRdBursts::30         1292                       # Per bank write bursts (Count)
system.mem_ctrl.dram.perBankRdBursts::31         1286                       # Per bank write bursts (Count)
system.mem_ctrl.dram.perBankWrBursts::0           711                       # Per bank write bursts (Count)
system.mem_ctrl.dram.perBankWrBursts::1           673                       # Per bank write bursts (Count)
system.mem_ctrl.dram.perBankWrBursts::2           646                       # Per bank write bursts (Count)
system.mem_ctrl.dram.perBankWrBursts::3           643                       # Per bank write bursts (Count)
system.mem_ctrl.dram.perBankWrBursts::4           768                       # Per bank write bursts (Count)
system.mem_ctrl.dram.perBankWrBursts::5           768                       # Per bank write bursts (Count)
system.mem_ctrl.dram.perBankWrBursts::6           768                       # Per bank write bursts (Count)
system.mem_ctrl.dram.perBankWrBursts::7           768                       # Per bank write bursts (Count)
system.mem_ctrl.dram.perBankWrBursts::8           768                       # Per bank write bursts (Count)
system.mem_ctrl.dram.perBankWrBursts::9           768                       # Per bank write bursts (Count)
system.mem_ctrl.dram.perBankWrBursts::10          768                       # Per bank write bursts (Count)
system.mem_ctrl.dram.perBankWrBursts::11          768                       # Per bank write bursts (Count)
system.mem_ctrl.dram.perBankWrBursts::12          768                       # Per bank write bursts (Count)
system.mem_ctrl.dram.perBankWrBursts::13          768                       # Per bank write bursts (Count)
system.mem_ctrl.dram.perBankWrBursts::14          768                       # Per bank write bursts (Count)
system.mem_ctrl.dram.perBankWrBursts::15          768                       # Per bank write bursts (Count)
system.mem_ctrl.dram.perBankWrBursts::16          768                       # Per bank write bursts (Count)
system.mem_ctrl.dram.perBankWrBursts::17          768                       # Per bank write bursts (Count)
system.mem_ctrl.dram.perBankWrBursts::18          768                       # Per bank write bursts (Count)
system.mem_ctrl.dram.perBankWrBursts::19          765                       # Per bank write bursts (Count)
system.mem_ctrl.dram.perBankWrBursts::20          768                       # Per bank write bursts (Count)
system.mem_ctrl.dram.perBankWrBursts::21          768                       # Per bank write bursts (Count)
system.mem_ctrl.dram.perBankWrBursts::22          768                       # Per bank write bursts (Count)
system.mem_ctrl.dram.perBankWrBursts::23          768                       # Per bank write bursts (Count)
system.mem_ctrl.dram.perBankWrBursts::24          768                       # Per bank write bursts (Count)
system.mem_ctrl.dram.perBankWrBursts::25          768                       # Per bank write bursts (Count)
system.mem_ctrl.dram.perBankWrBursts::26          800                       # Per bank write bursts (Count)
system.mem_ctrl.dram.perBankWrBursts::27          775                       # Per bank write bursts (Count)
system.mem_ctrl.dram.perBankWrBursts::28          768                       # Per bank write bursts (Count)
system.mem_ctrl.dram.perBankWrBursts::29          795                       # Per bank write bursts (Count)
system.mem_ctrl.dram.perBankWrBursts::30          835                       # Per bank write bursts (Count)
system.mem_ctrl.dram.perBankWrBursts::31          684                       # Per bank write bursts (Count)
system.mem_ctrl.dram.totQLat                865434462                       # Total ticks spent queuing (Tick)
system.mem_ctrl.dram.totBusLat              139577480                       # Total ticks spent in databus transfers (Tick)
system.mem_ctrl.dram.totMemAccLat          1598174342                       # Total ticks spent from burst creation until serviced by the DRAM (Tick)
system.mem_ctrl.dram.avgQLat                 20659.69                       # Average queueing delay per DRAM burst ((Tick/Count))
system.mem_ctrl.dram.avgBusLat                3332.00                       # Average bus latency per DRAM burst ((Tick/Count))
system.mem_ctrl.dram.avgMemAccLat            38151.69                       # Average memory access latency per DRAM burst ((Tick/Count))
system.mem_ctrl.dram.readRowHits                28378                       # Number of row buffer hits during reads (Count)
system.mem_ctrl.dram.writeRowHits               21712                       # Number of row buffer hits during writes (Count)
system.mem_ctrl.dram.readRowHitRate             67.74                       # Row buffer hit rate for reads (Ratio)
system.mem_ctrl.dram.writeRowHitRate            89.63                       # Row buffer hit rate for writes (Ratio)
system.mem_ctrl.dram.bytesPerActivate::samples        16022                       # Bytes accessed per row activation (Byte)
system.mem_ctrl.dram.bytesPerActivate::mean   264.084883                       # Bytes accessed per row activation (Byte)
system.mem_ctrl.dram.bytesPerActivate::gmean   168.430264                       # Bytes accessed per row activation (Byte)
system.mem_ctrl.dram.bytesPerActivate::stdev   303.295477                       # Bytes accessed per row activation (Byte)
system.mem_ctrl.dram.bytesPerActivate::0-127         4080     25.46%     25.46% # Bytes accessed per row activation (Byte)
system.mem_ctrl.dram.bytesPerActivate::128-255         8644     53.95%     79.42% # Bytes accessed per row activation (Byte)
system.mem_ctrl.dram.bytesPerActivate::256-383          347      2.17%     81.58% # Bytes accessed per row activation (Byte)
system.mem_ctrl.dram.bytesPerActivate::384-511          275      1.72%     83.30% # Bytes accessed per row activation (Byte)
system.mem_ctrl.dram.bytesPerActivate::512-639          509      3.18%     86.47% # Bytes accessed per row activation (Byte)
system.mem_ctrl.dram.bytesPerActivate::640-767          127      0.79%     87.27% # Bytes accessed per row activation (Byte)
system.mem_ctrl.dram.bytesPerActivate::768-895           95      0.59%     87.86% # Bytes accessed per row activation (Byte)
system.mem_ctrl.dram.bytesPerActivate::896-1023          178      1.11%     88.97% # Bytes accessed per row activation (Byte)
system.mem_ctrl.dram.bytesPerActivate::1024-1151         1767     11.03%    100.00% # Bytes accessed per row activation (Byte)
system.mem_ctrl.dram.bytesPerActivate::total        16022                       # Bytes accessed per row activation (Byte)
system.mem_ctrl.dram.bytesRead                2680960                       # Total bytes read (Byte)
system.mem_ctrl.dram.bytesWritten             1550272                       # Total bytes written (Byte)
system.mem_ctrl.dram.avgRdBW                54.982852                       # Average DRAM read bandwidth in MiBytes/s ((Byte/Second))
system.mem_ctrl.dram.avgWrBW                31.793975                       # Average DRAM write bandwidth in MiBytes/s ((Byte/Second))
system.mem_ctrl.dram.peakBW                  19207.00                       # Theoretical peak bandwidth in MiByte/s ((Byte/Second))
system.mem_ctrl.dram.busUtil                     0.45                       # Data bus utilization in percentage (Ratio)
system.mem_ctrl.dram.busUtilRead                 0.29                       # Data bus utilization in percentage for reads (Ratio)
system.mem_ctrl.dram.busUtilWrite                0.17                       # Data bus utilization in percentage for writes (Ratio)
system.mem_ctrl.dram.pageHitRate                75.76                       # Row buffer hit rate, read and write combined (Ratio)
system.mem_ctrl.dram.power_state.pwrStateResidencyTicks::UNDEFINED  48759929500                       # Cumulative time (in ticks) in various power states (Tick)
system.mem_ctrl.dram.rank0.actEnergy     25027984.800001                       # Energy for activate commands per rank (pJ) (Joule)
system.mem_ctrl.dram.rank0.preEnergy     33274384.919999                       # Energy for precharge commands per rank (pJ) (Joule)
system.mem_ctrl.dram.rank0.readEnergy    90637714.406394                       # Energy for read commands per rank (pJ) (Joule)
system.mem_ctrl.dram.rank0.writeEnergy   44684758.944000                       # Energy for write commands per rank (pJ) (Joule)
system.mem_ctrl.dram.rank0.refreshEnergy 8675234701.526857                       # Energy for refresh commands per rank (pJ) (Joule)
system.mem_ctrl.dram.rank0.actBackEnergy 16706904184.152292                       # Energy for active background per rank (pJ) (Joule)
system.mem_ctrl.dram.rank0.preBackEnergy 18993538904.256599                       # Energy for precharge background per rank (pJ) (Joule)
system.mem_ctrl.dram.rank0.actPowerDownEnergy            0                       # Energy for active power-down per rank (pJ) (Joule)
system.mem_ctrl.dram.rank0.prePowerDownEnergy            0                       # Energy for precharge power-down per rank (pJ) (Joule)
system.mem_ctrl.dram.rank0.selfRefreshEnergy            0                       # Energy for self refresh per rank (pJ) (Joule)
system.mem_ctrl.dram.rank0.totalEnergy   44569302633.005676                       # Total energy per rank (pJ) (Joule)
system.mem_ctrl.dram.rank0.averagePower    914.055929                       # Core power per rank (mW) (Watt)
system.mem_ctrl.dram.rank0.totalIdleTime            0                       # Total Idle time Per DRAM Rank (Tick)
system.mem_ctrl.dram.rank0.pwrStateTime::IDLE  28956138426                       # Time in different power states (Tick)
system.mem_ctrl.dram.rank0.pwrStateTime::REF   2191700000                       # Time in different power states (Tick)
system.mem_ctrl.dram.rank0.pwrStateTime::SREF            0                       # Time in different power states (Tick)
system.mem_ctrl.dram.rank0.pwrStateTime::PRE_PDN            0                       # Time in different power states (Tick)
system.mem_ctrl.dram.rank0.pwrStateTime::ACT  17612091074                       # Time in different power states (Tick)
system.mem_ctrl.dram.rank0.pwrStateTime::ACT_PDN            0                       # Time in different power states (Tick)
system.mem_ctrl.dram.rank1.actEnergy     24943778.496001                       # Energy for activate commands per rank (pJ) (Joule)
system.mem_ctrl.dram.rank1.preEnergy     33158287.377599                       # Energy for precharge commands per rank (pJ) (Joule)
system.mem_ctrl.dram.rank1.readEnergy    85564896.345595                       # Energy for read commands per rank (pJ) (Joule)
system.mem_ctrl.dram.rank1.writeEnergy   46357289.664000                       # Energy for write commands per rank (pJ) (Joule)
system.mem_ctrl.dram.rank1.refreshEnergy 8675234701.526857                       # Energy for refresh commands per rank (pJ) (Joule)
system.mem_ctrl.dram.rank1.actBackEnergy 18312168661.416359                       # Energy for active background per rank (pJ) (Joule)
system.mem_ctrl.dram.rank1.preBackEnergy 17760115351.104546                       # Energy for precharge background per rank (pJ) (Joule)
system.mem_ctrl.dram.rank1.actPowerDownEnergy            0                       # Energy for active power-down per rank (pJ) (Joule)
system.mem_ctrl.dram.rank1.prePowerDownEnergy            0                       # Energy for precharge power-down per rank (pJ) (Joule)
system.mem_ctrl.dram.rank1.selfRefreshEnergy            0                       # Energy for self refresh per rank (pJ) (Joule)
system.mem_ctrl.dram.rank1.totalEnergy   44937542965.930542                       # Total energy per rank (pJ) (Joule)
system.mem_ctrl.dram.rank1.averagePower    921.608038                       # Core power per rank (mW) (Watt)
system.mem_ctrl.dram.rank1.totalIdleTime            0                       # Total Idle time Per DRAM Rank (Tick)
system.mem_ctrl.dram.rank1.pwrStateTime::IDLE  27059264568                       # Time in different power states (Tick)
system.mem_ctrl.dram.rank1.pwrStateTime::REF   2191700000                       # Time in different power states (Tick)
system.mem_ctrl.dram.rank1.pwrStateTime::SREF            0                       # Time in different power states (Tick)
system.mem_ctrl.dram.rank1.pwrStateTime::PRE_PDN            0                       # Time in different power states (Tick)
system.mem_ctrl.dram.rank1.pwrStateTime::ACT  19508964932                       # Time in different power states (Tick)
system.mem_ctrl.dram.rank1.pwrStateTime::ACT_PDN            0                       # Time in different power states (Tick)
system.mem_ctrl.power_state.pwrStateResidencyTicks::UNDEFINED  48759929500                       # Cumulative time (in ticks) in various power states (Tick)
system.membus.transDist::ReadResp               14595                       # Transaction distribution (Count)
system.membus.transDist::WritebackDirty         24280                       # Transaction distribution (Count)
system.membus.transDist::CleanEvict             13003                       # Transaction distribution (Count)
system.membus.transDist::ReadExReq              27300                       # Transaction distribution (Count)
system.membus.transDist::ReadExResp             27300                       # Transaction distribution (Count)
system.membus.transDist::ReadSharedReq          14595                       # Transaction distribution (Count)
system.membus.pktCount_system.l2cache.mem_side_port::system.mem_ctrl.port       121073                       # Packet count per connected requestor and responder (Count)
system.membus.pktCount::total                  121073                       # Packet count per connected requestor and responder (Count)
system.membus.pktSize_system.l2cache.mem_side_port::system.mem_ctrl.port      4235200                       # Cumulative packet size per connected requestor and responder (Byte)
system.membus.pktSize::total                  4235200                       # Cumulative packet size per connected requestor and responder (Byte)
system.membus.snoops                                0                       # Total snoops (Count)
system.membus.snoopTraffic                          0                       # Total snoop traffic (Byte)
system.membus.snoopFanout::samples              41895                       # Request fanout histogram (Count)
system.membus.snoopFanout::mean                     0                       # Request fanout histogram (Count)
system.membus.snoopFanout::stdev                    0                       # Request fanout histogram (Count)
system.membus.snoopFanout::underflows               0      0.00%      0.00% # Request fanout histogram (Count)
system.membus.snoopFanout::0                    41895    100.00%    100.00% # Request fanout histogram (Count)
system.membus.snoopFanout::1                        0      0.00%    100.00% # Request fanout histogram (Count)
system.membus.snoopFanout::overflows                0      0.00%    100.00% # Request fanout histogram (Count)
system.membus.snoopFanout::min_value                0                       # Request fanout histogram (Count)
system.membus.snoopFanout::max_value                0                       # Request fanout histogram (Count)
system.membus.snoopFanout::total                41895                       # Request fanout histogram (Count)
system.membus.power_state.pwrStateResidencyTicks::UNDEFINED  48759929500                       # Cumulative time (in ticks) in various power states (Tick)
system.membus.reqLayer0.occupancy            88149000                       # Layer occupancy (ticks) (Tick)
system.membus.reqLayer0.utilization               0.0                       # Layer utilization (Ratio)
system.membus.respLayer0.occupancy          109982158                       # Layer occupancy (ticks) (Tick)
system.membus.respLayer0.utilization              0.0                       # Layer utilization (Ratio)
system.membus.snoop_filter.totRequests          79178                       # Total number of requests made to the snoop filter. (Count)
system.membus.snoop_filter.hitSingleRequests        37304                       # Number of requests hitting in the snoop filter with a single holder of the requested data. (Count)
system.membus.snoop_filter.hitMultiRequests            0                       # Number of requests hitting in the snoop filter with multiple (>1) holders of the requested data. (Count)
system.membus.snoop_filter.totSnoops                0                       # Total number of snoops made to the snoop filter. (Count)
system.membus.snoop_filter.hitSingleSnoops            0                       # Number of snoops hitting in the snoop filter with a single holder of the requested data. (Count)
system.membus.snoop_filter.hitMultiSnoops            0                       # Number of snoops hitting in the snoop filter with multiple (>1) holders of the requested data. (Count)
system.workload.inst.arm                            0                       # number of arm instructions executed (Count)
system.workload.inst.quiesce                        0                       # number of quiesce instructions executed (Count)

---------- End Simulation Statistics   ----------
