
---------- Begin Simulation Statistics ----------
simSeconds                                   0.049153                       # Number of seconds simulated (Second)
simTicks                                  49152658000                       # Number of ticks simulated (Tick)
finalTick                                 49152658000                       # Number of ticks from beginning of simulation (restored from checkpoints and never reset) (Tick)
simFreq                                  1000000000000                       # The number of ticks per simulated second ((Tick/Second))
hostSeconds                                    704.18                       # Real time elapsed on the host (Second)
hostTickRate                                 69800816                       # The number of ticks simulated per host second (ticks/s) ((Tick/Second))
hostMemory                                    2247172                       # Number of bytes of host memory used (Byte)
simInsts                                    200000006                       # Number of instructions simulated (Count)
simOps                                      227162985                       # Number of ops (including micro ops) simulated (Count)
hostInstRate                                   284016                       # Simulator instruction rate (inst/s) ((Count/Second))
hostOpRate                                     322590                       # Simulator op (including micro ops) rate (op/s) ((Count/Second))
system.clk_domain.clock                           500                       # Clock period in ticks (Tick)
system.clk_domain.voltage_domain.voltage            1                       # Voltage in Volts (Volt)
system.cpu.numCycles                         98305317                       # Number of cpu cycles simulated (Cycle)
system.cpu.numWorkItemsStarted                      0                       # Number of work items this cpu started (Count)
system.cpu.numWorkItemsCompleted                    0                       # Number of work items this cpu completed (Count)
system.cpu.instsAdded                       253315514                       # Number of instructions added to the IQ (excludes non-spec) (Count)
system.cpu.nonSpecInstsAdded                     1136                       # Number of non-speculative instructions added to the IQ (Count)
system.cpu.instsIssued                      241163938                       # Number of instructions issued (Count)
system.cpu.squashedInstsIssued                   2210                       # Number of squashed instructions issued (Count)
system.cpu.squashedInstsExamined             26153646                       # Number of squashed instructions iterated over during squash; mainly for profiling (Count)
system.cpu.squashedOperandsExamined          79154145                       # Number of squashed operands that are examined and possibly removed from graph (Count)
system.cpu.squashedNonSpecRemoved                 101                       # Number of squashed non-spec instructions that were removed (Count)
system.cpu.numIssuedDist::samples            98215746                       # Number of insts issued each cycle (Count)
system.cpu.numIssuedDist::mean               2.455451                       # Number of insts issued each cycle (Count)
system.cpu.numIssuedDist::stdev              1.947975                       # Number of insts issued each cycle (Count)
system.cpu.numIssuedDist::underflows                0      0.00%      0.00% # Number of insts issued each cycle (Count)
system.cpu.numIssuedDist::0                  16026561     16.32%     16.32% # Number of insts issued each cycle (Count)
system.cpu.numIssuedDist::1                  19702656     20.06%     36.38% # Number of insts issued each cycle (Count)
system.cpu.numIssuedDist::2                  20930842     21.31%     57.69% # Number of insts issued each cycle (Count)
system.cpu.numIssuedDist::3                  16181253     16.48%     74.16% # Number of insts issued each cycle (Count)
system.cpu.numIssuedDist::4                   9523065      9.70%     83.86% # Number of insts issued each cycle (Count)
system.cpu.numIssuedDist::5                   8131618      8.28%     92.14% # Number of insts issued each cycle (Count)
system.cpu.numIssuedDist::6                   3931697      4.00%     96.14% # Number of insts issued each cycle (Count)
system.cpu.numIssuedDist::7                   1589125      1.62%     97.76% # Number of insts issued each cycle (Count)
system.cpu.numIssuedDist::8                   2198929      2.24%    100.00% # Number of insts issued each cycle (Count)
system.cpu.numIssuedDist::overflows                 0      0.00%    100.00% # Number of insts issued each cycle (Count)
system.cpu.numIssuedDist::min_value                 0                       # Number of insts issued each cycle (Count)
system.cpu.numIssuedDist::max_value                 8                       # Number of insts issued each cycle (Count)
system.cpu.numIssuedDist::total              98215746                       # Number of insts issued each cycle (Count)
system.cpu.statFuBusy::No_OpClass                   0      0.00%      0.00% # attempts to use FU when none available (Count)
system.cpu.statFuBusy::IntAlu                  470129     15.02%     15.02% # attempts to use FU when none available (Count)
system.cpu.statFuBusy::IntMult                      0      0.00%     15.02% # attempts to use FU when none available (Count)
system.cpu.statFuBusy::IntDiv                       0      0.00%     15.02% # attempts to use FU when none available (Count)
system.cpu.statFuBusy::FloatAdd                     0      0.00%     15.02% # attempts to use FU when none available (Count)
system.cpu.statFuBusy::FloatCmp                     0      0.00%     15.02% # attempts to use FU when none available (Count)
system.cpu.statFuBusy::FloatCvt                     0      0.00%     15.02% # attempts to use FU when none available (Count)
system.cpu.statFuBusy::FloatMult                    0      0.00%     15.02% # attempts to use FU when none available (Count)
system.cpu.statFuBusy::FloatMultAcc                 0      0.00%     15.02% # attempts to use FU when none available (Count)
system.cpu.statFuBusy::FloatDiv                     0      0.00%     15.02% # attempts to use FU when none available (Count)
system.cpu.statFuBusy::FloatMisc                    0      0.00%     15.02% # attempts to use FU when none available (Count)
system.cpu.statFuBusy::FloatSqrt                    0      0.00%     15.02% # attempts to use FU when none available (Count)
system.cpu.statFuBusy::SimdAdd                      0      0.00%     15.02% # attempts to use FU when none available (Count)
system.cpu.statFuBusy::SimdAddAcc                   0      0.00%     15.02% # attempts to use FU when none available (Count)
system.cpu.statFuBusy::SimdAlu                      0      0.00%     15.02% # attempts to use FU when none available (Count)
system.cpu.statFuBusy::SimdCmp                      0      0.00%     15.02% # attempts to use FU when none available (Count)
system.cpu.statFuBusy::SimdCvt                      0      0.00%     15.02% # attempts to use FU when none available (Count)
system.cpu.statFuBusy::SimdMisc                     0      0.00%     15.02% # attempts to use FU when none available (Count)
system.cpu.statFuBusy::SimdMult                     0      0.00%     15.02% # attempts to use FU when none available (Count)
system.cpu.statFuBusy::SimdMultAcc                  0      0.00%     15.02% # attempts to use FU when none available (Count)
system.cpu.statFuBusy::SimdShift                    0      0.00%     15.02% # attempts to use FU when none available (Count)
system.cpu.statFuBusy::SimdShiftAcc                 0      0.00%     15.02% # attempts to use FU when none available (Count)
system.cpu.statFuBusy::SimdDiv                      0      0.00%     15.02% # attempts to use FU when none available (Count)
system.cpu.statFuBusy::SimdSqrt                     0      0.00%     15.02% # attempts to use FU when none available (Count)
system.cpu.statFuBusy::SimdFloatAdd                 0      0.00%     15.02% # attempts to use FU when none available (Count)
system.cpu.statFuBusy::SimdFloatAlu                 0      0.00%     15.02% # attempts to use FU when none available (Count)
system.cpu.statFuBusy::SimdFloatCmp                 0      0.00%     15.02% # attempts to use FU when none available (Count)
system.cpu.statFuBusy::SimdFloatCvt                 0      0.00%     15.02% # attempts to use FU when none available (Count)
system.cpu.statFuBusy::SimdFloatDiv                 0      0.00%     15.02% # attempts to use FU when none available (Count)
system.cpu.statFuBusy::SimdFloatMisc                0      0.00%     15.02% # attempts to use FU when none available (Count)
system.cpu.statFuBusy::SimdFloatMult                0      0.00%     15.02% # attempts to use FU when none available (Count)
system.cpu.statFuBusy::SimdFloatMultAcc             0      0.00%     15.02% # attempts to use FU when none available (Count)
system.cpu.statFuBusy::SimdFloatSqrt                0      0.00%     15.02% # attempts to use FU when none available (Count)
system.cpu.statFuBusy::SimdReduceAdd                0      0.00%     15.02% # attempts to use FU when none available (Count)
system.cpu.statFuBusy::SimdReduceAlu                0      0.00%     15.02% # attempts to use FU when none available (Count)
system.cpu.statFuBusy::SimdReduceCmp                0      0.00%     15.02% # attempts to use FU when none available (Count)
system.cpu.statFuBusy::SimdFloatReduceAdd            0      0.00%     15.02% # attempts to use FU when none available (Count)
system.cpu.statFuBusy::SimdFloatReduceCmp            0      0.00%     15.02% # attempts to use FU when none available (Count)
system.cpu.statFuBusy::SimdAes                      0      0.00%     15.02% # attempts to use FU when none available (Count)
system.cpu.statFuBusy::SimdAesMix                   0      0.00%     15.02% # attempts to use FU when none available (Count)
system.cpu.statFuBusy::SimdSha1Hash                 0      0.00%     15.02% # attempts to use FU when none available (Count)
system.cpu.statFuBusy::SimdSha1Hash2                0      0.00%     15.02% # attempts to use FU when none available (Count)
system.cpu.statFuBusy::SimdSha256Hash               0      0.00%     15.02% # attempts to use FU when none available (Count)
system.cpu.statFuBusy::SimdSha256Hash2              0      0.00%     15.02% # attempts to use FU when none available (Count)
system.cpu.statFuBusy::SimdShaSigma2                0      0.00%     15.02% # attempts to use FU when none available (Count)
system.cpu.statFuBusy::SimdShaSigma3                0      0.00%     15.02% # attempts to use FU when none available (Count)
system.cpu.statFuBusy::SimdPredAlu                  0      0.00%     15.02% # attempts to use FU when none available (Count)
system.cpu.statFuBusy::MemRead                1870567     59.75%     74.76% # attempts to use FU when none available (Count)
system.cpu.statFuBusy::MemWrite                790046     25.24%    100.00% # attempts to use FU when none available (Count)
system.cpu.statFuBusy::FloatMemRead                 0      0.00%    100.00% # attempts to use FU when none available (Count)
system.cpu.statFuBusy::FloatMemWrite                0      0.00%    100.00% # attempts to use FU when none available (Count)
system.cpu.statFuBusy::IprAccess                    0      0.00%    100.00% # attempts to use FU when none available (Count)
system.cpu.statFuBusy::InstPrefetch                 0      0.00%    100.00% # attempts to use FU when none available (Count)
system.cpu.statIssuedInstType_0::No_OpClass            0      0.00%      0.00% # Number of instructions issued per FU type, per thread (Count)
system.cpu.statIssuedInstType_0::IntAlu     152497435     63.23%     63.23% # Number of instructions issued per FU type, per thread (Count)
system.cpu.statIssuedInstType_0::IntMult      1177198      0.49%     63.72% # Number of instructions issued per FU type, per thread (Count)
system.cpu.statIssuedInstType_0::IntDiv             0      0.00%     63.72% # Number of instructions issued per FU type, per thread (Count)
system.cpu.statIssuedInstType_0::FloatAdd            0      0.00%     63.72% # Number of instructions issued per FU type, per thread (Count)
system.cpu.statIssuedInstType_0::FloatCmp            0      0.00%     63.72% # Number of instructions issued per FU type, per thread (Count)
system.cpu.statIssuedInstType_0::FloatCvt            0      0.00%     63.72% # Number of instructions issued per FU type, per thread (Count)
system.cpu.statIssuedInstType_0::FloatMult            0      0.00%     63.72% # Number of instructions issued per FU type, per thread (Count)
system.cpu.statIssuedInstType_0::FloatMultAcc            0      0.00%     63.72% # Number of instructions issued per FU type, per thread (Count)
system.cpu.statIssuedInstType_0::FloatDiv            0      0.00%     63.72% # Number of instructions issued per FU type, per thread (Count)
system.cpu.statIssuedInstType_0::FloatMisc            0      0.00%     63.72% # Number of instructions issued per FU type, per thread (Count)
system.cpu.statIssuedInstType_0::FloatSqrt            0      0.00%     63.72% # Number of instructions issued per FU type, per thread (Count)
system.cpu.statIssuedInstType_0::SimdAdd            0      0.00%     63.72% # Number of instructions issued per FU type, per thread (Count)
system.cpu.statIssuedInstType_0::SimdAddAcc            0      0.00%     63.72% # Number of instructions issued per FU type, per thread (Count)
system.cpu.statIssuedInstType_0::SimdAlu            0      0.00%     63.72% # Number of instructions issued per FU type, per thread (Count)
system.cpu.statIssuedInstType_0::SimdCmp            0      0.00%     63.72% # Number of instructions issued per FU type, per thread (Count)
system.cpu.statIssuedInstType_0::SimdCvt            0      0.00%     63.72% # Number of instructions issued per FU type, per thread (Count)
system.cpu.statIssuedInstType_0::SimdMisc            0      0.00%     63.72% # Number of instructions issued per FU type, per thread (Count)
system.cpu.statIssuedInstType_0::SimdMult            0      0.00%     63.72% # Number of instructions issued per FU type, per thread (Count)
system.cpu.statIssuedInstType_0::SimdMultAcc            0      0.00%     63.72% # Number of instructions issued per FU type, per thread (Count)
system.cpu.statIssuedInstType_0::SimdShift            0      0.00%     63.72% # Number of instructions issued per FU type, per thread (Count)
system.cpu.statIssuedInstType_0::SimdShiftAcc            0      0.00%     63.72% # Number of instructions issued per FU type, per thread (Count)
system.cpu.statIssuedInstType_0::SimdDiv            0      0.00%     63.72% # Number of instructions issued per FU type, per thread (Count)
system.cpu.statIssuedInstType_0::SimdSqrt            0      0.00%     63.72% # Number of instructions issued per FU type, per thread (Count)
system.cpu.statIssuedInstType_0::SimdFloatAdd            0      0.00%     63.72% # Number of instructions issued per FU type, per thread (Count)
system.cpu.statIssuedInstType_0::SimdFloatAlu            0      0.00%     63.72% # Number of instructions issued per FU type, per thread (Count)
system.cpu.statIssuedInstType_0::SimdFloatCmp            0      0.00%     63.72% # Number of instructions issued per FU type, per thread (Count)
system.cpu.statIssuedInstType_0::SimdFloatCvt            0      0.00%     63.72% # Number of instructions issued per FU type, per thread (Count)
system.cpu.statIssuedInstType_0::SimdFloatDiv            0      0.00%     63.72% # Number of instructions issued per FU type, per thread (Count)
system.cpu.statIssuedInstType_0::SimdFloatMisc            0      0.00%     63.72% # Number of instructions issued per FU type, per thread (Count)
system.cpu.statIssuedInstType_0::SimdFloatMult            0      0.00%     63.72% # Number of instructions issued per FU type, per thread (Count)
system.cpu.statIssuedInstType_0::SimdFloatMultAcc            0      0.00%     63.72% # Number of instructions issued per FU type, per thread (Count)
system.cpu.statIssuedInstType_0::SimdFloatSqrt            0      0.00%     63.72% # Number of instructions issued per FU type, per thread (Count)
system.cpu.statIssuedInstType_0::SimdReduceAdd            0      0.00%     63.72% # Number of instructions issued per FU type, per thread (Count)
system.cpu.statIssuedInstType_0::SimdReduceAlu            0      0.00%     63.72% # Number of instructions issued per FU type, per thread (Count)
system.cpu.statIssuedInstType_0::SimdReduceCmp            0      0.00%     63.72% # Number of instructions issued per FU type, per thread (Count)
system.cpu.statIssuedInstType_0::SimdFloatReduceAdd            0      0.00%     63.72% # Number of instructions issued per FU type, per thread (Count)
system.cpu.statIssuedInstType_0::SimdFloatReduceCmp            0      0.00%     63.72% # Number of instructions issued per FU type, per thread (Count)
system.cpu.statIssuedInstType_0::SimdAes            0      0.00%     63.72% # Number of instructions issued per FU type, per thread (Count)
system.cpu.statIssuedInstType_0::SimdAesMix            0      0.00%     63.72% # Number of instructions issued per FU type, per thread (Count)
system.cpu.statIssuedInstType_0::SimdSha1Hash            0      0.00%     63.72% # Number of instructions issued per FU type, per thread (Count)
system.cpu.statIssuedInstType_0::SimdSha1Hash2            0      0.00%     63.72% # Number of instructions issued per FU type, per thread (Count)
system.cpu.statIssuedInstType_0::SimdSha256Hash            0      0.00%     63.72% # Number of instructions issued per FU type, per thread (Count)
system.cpu.statIssuedInstType_0::SimdSha256Hash2            0      0.00%     63.72% # Number of instructions issued per FU type, per thread (Count)
system.cpu.statIssuedInstType_0::SimdShaSigma2            0      0.00%     63.72% # Number of instructions issued per FU type, per thread (Count)
system.cpu.statIssuedInstType_0::SimdShaSigma3            0      0.00%     63.72% # Number of instructions issued per FU type, per thread (Count)
system.cpu.statIssuedInstType_0::SimdPredAlu            0      0.00%     63.72% # Number of instructions issued per FU type, per thread (Count)
system.cpu.statIssuedInstType_0::MemRead     56299449     23.34%     87.07% # Number of instructions issued per FU type, per thread (Count)
system.cpu.statIssuedInstType_0::MemWrite     31189856     12.93%    100.00% # Number of instructions issued per FU type, per thread (Count)
system.cpu.statIssuedInstType_0::FloatMemRead            0      0.00%    100.00% # Number of instructions issued per FU type, per thread (Count)
system.cpu.statIssuedInstType_0::FloatMemWrite            0      0.00%    100.00% # Number of instructions issued per FU type, per thread (Count)
system.cpu.statIssuedInstType_0::IprAccess            0      0.00%    100.00% # Number of instructions issued per FU type, per thread (Count)
system.cpu.statIssuedInstType_0::InstPrefetch            0      0.00%    100.00% # Number of instructions issued per FU type, per thread (Count)
system.cpu.statIssuedInstType_0::total      241163938                       # Number of instructions issued per FU type, per thread (Count)
system.cpu.issueRate                         2.453214                       # Inst issue rate ((Count/Cycle))
system.cpu.fuBusy                             3130742                       # FU busy when requested (Count)
system.cpu.fuBusyRate                        0.012982                       # FU busy rate (busy events/executed inst) ((Count/Count))
system.cpu.intInstQueueReads                583676572                       # Number of integer instruction queue reads (Count)
system.cpu.intInstQueueWrites               279474979                       # Number of integer instruction queue writes (Count)
system.cpu.intInstQueueWakeupAccesses       234639576                       # Number of integer instruction queue wakeup accesses (Count)
system.cpu.fpInstQueueReads                         0                       # Number of floating instruction queue reads (Count)
system.cpu.fpInstQueueWrites                        0                       # Number of floating instruction queue writes (Count)
system.cpu.fpInstQueueWakeupAccesses                0                       # Number of floating instruction queue wakeup accesses (Count)
system.cpu.vecInstQueueReads                        0                       # Number of vector instruction queue reads (Count)
system.cpu.vecInstQueueWrites                       0                       # Number of vector instruction queue writes (Count)
system.cpu.vecInstQueueWakeupAccesses               0                       # Number of vector instruction queue wakeup accesses (Count)
system.cpu.intAluAccesses                   244294680                       # Number of integer alu accesses (Count)
system.cpu.fpAluAccesses                            0                       # Number of floating point alu accesses (Count)
system.cpu.vecAluAccesses                           0                       # Number of vector alu accesses (Count)
system.cpu.numInsts                         239139273                       # Number of executed instructions (Count)
system.cpu.numLoadInsts                      55298415                       # Number of load instructions executed (Count)
system.cpu.numSquashedInsts                   2024663                       # Number of squashed instructions skipped in execute (Count)
system.cpu.numSwp                                   0                       # Number of swp insts executed (Count)
system.cpu.numNop                                   0                       # Number of nop insts executed (Count)
system.cpu.numRefs                           86061553                       # Number of memory reference insts executed (Count)
system.cpu.numBranches                       38857375                       # Number of branches executed (Count)
system.cpu.numStoreInsts                     30763138                       # Number of stores executed (Count)
system.cpu.numRate                           2.432618                       # Inst execution rate ((Count/Cycle))
system.cpu.timesIdled                            2889                       # Number of times that the entire CPU went into an idle state and unscheduled itself (Count)
system.cpu.idleCycles                           89571                       # Total number of cycles that the CPU has spent unscheduled due to idling (Cycle)
system.cpu.committedInsts                   200000006                       # Number of Instructions Simulated (Count)
system.cpu.committedOps                     227162985                       # Number of Ops (including micro ops) Simulated (Count)
system.cpu.cpi                               0.491527                       # CPI: Cycles Per Instruction ((Cycle/Count))
system.cpu.totalCpi                          0.491527                       # CPI: Total CPI of All Threads ((Cycle/Count))
system.cpu.ipc                               2.034478                       # IPC: Instructions Per Cycle ((Count/Cycle))
system.cpu.totalIpc                          2.034478                       # IPC: Total IPC of All Threads ((Count/Cycle))
system.cpu.intRegfileReads                  273464290                       # Number of integer regfile reads (Count)
system.cpu.intRegfileWrites                 139368759                       # Number of integer regfile writes (Count)
system.cpu.vecRegfileReads                         16                       # number of vector regfile reads (Count)
system.cpu.ccRegfileReads                   869062493                       # number of cc regfile reads (Count)
system.cpu.ccRegfileWrites                  120781306                       # number of cc regfile writes (Count)
system.cpu.miscRegfileReads                  81314237                       # number of misc regfile reads (Count)
system.cpu.miscRegfileWrites                     1653                       # number of misc regfile writes (Count)
system.cpu.MemDepUnit__0.insertedLoads       55458449                       # Number of loads inserted to the mem dependence unit. (Count)
system.cpu.MemDepUnit__0.insertedStores      32291801                       # Number of stores inserted to the mem dependence unit. (Count)
system.cpu.MemDepUnit__0.conflictingLoads      9515597                       # Number of conflicting loads. (Count)
system.cpu.MemDepUnit__0.conflictingStores      5175878                       # Number of conflicting stores. (Count)
system.cpu.MemDepUnit__1.insertedLoads              0                       # Number of loads inserted to the mem dependence unit. (Count)
system.cpu.MemDepUnit__1.insertedStores             0                       # Number of stores inserted to the mem dependence unit. (Count)
system.cpu.MemDepUnit__1.conflictingLoads            0                       # Number of conflicting loads. (Count)
system.cpu.MemDepUnit__1.conflictingStores            0                       # Number of conflicting stores. (Count)
system.cpu.MemDepUnit__2.insertedLoads              0                       # Number of loads inserted to the mem dependence unit. (Count)
system.cpu.MemDepUnit__2.insertedStores             0                       # Number of stores inserted to the mem dependence unit. (Count)
system.cpu.MemDepUnit__2.conflictingLoads            0                       # Number of conflicting loads. (Count)
system.cpu.MemDepUnit__2.conflictingStores            0                       # Number of conflicting stores. (Count)
system.cpu.MemDepUnit__3.insertedLoads              0                       # Number of loads inserted to the mem dependence unit. (Count)
system.cpu.MemDepUnit__3.insertedStores             0                       # Number of stores inserted to the mem dependence unit. (Count)
system.cpu.MemDepUnit__3.conflictingLoads            0                       # Number of conflicting loads. (Count)
system.cpu.MemDepUnit__3.conflictingStores            0                       # Number of conflicting stores. (Count)
system.cpu.branchPred.lookups                47032058                       # Number of BP lookups (Count)
system.cpu.branchPred.condPredicted          35717424                       # Number of conditional branches predicted (Count)
system.cpu.branchPred.condIncorrect           1301292                       # Number of conditional branches incorrect (Count)
system.cpu.branchPred.BTBLookups             14434130                       # Number of BTB lookups (Count)
system.cpu.branchPred.BTBHits                12561442                       # Number of BTB hits (Count)
system.cpu.branchPred.BTBHitRatio            0.870260                       # BTB Hit Ratio (Ratio)
system.cpu.branchPred.RASUsed                 5061876                       # Number of times the RAS was used to get a target. (Count)
system.cpu.branchPred.RASIncorrect               1313                       # Number of incorrect RAS predictions. (Count)
system.cpu.branchPred.indirectLookups          518880                       # Number of indirect predictor lookups. (Count)
system.cpu.branchPred.indirectHits             515202                       # Number of indirect target hits. (Count)
system.cpu.branchPred.indirectMisses             3678                       # Number of indirect misses. (Count)
system.cpu.branchPred.indirectMispredicted          552                       # Number of mispredicted indirect branches. (Count)
system.cpu.commit.commitSquashedInsts        26132644                       # The number of squashed insts skipped by commit (Count)
system.cpu.commit.commitNonSpecStalls            1035                       # The number of times commit has been forced to stall to communicate backwards (Count)
system.cpu.commit.branchMispredicts            786625                       # The number of times a branch was mispredicted (Count)
system.cpu.commit.numCommittedDist::samples     94516126                       # Number of insts commited each cycle (Count)
system.cpu.commit.numCommittedDist::mean     2.403431                       # Number of insts commited each cycle (Count)
system.cpu.commit.numCommittedDist::stdev     2.736041                       # Number of insts commited each cycle (Count)
system.cpu.commit.numCommittedDist::underflows            0      0.00%      0.00% # Number of insts commited each cycle (Count)
system.cpu.commit.numCommittedDist::0        24469231     25.89%     25.89% # Number of insts commited each cycle (Count)
system.cpu.commit.numCommittedDist::1        28196319     29.83%     55.72% # Number of insts commited each cycle (Count)
system.cpu.commit.numCommittedDist::2        14737883     15.59%     71.31% # Number of insts commited each cycle (Count)
system.cpu.commit.numCommittedDist::3         3569058      3.78%     75.09% # Number of insts commited each cycle (Count)
system.cpu.commit.numCommittedDist::4         4545114      4.81%     79.90% # Number of insts commited each cycle (Count)
system.cpu.commit.numCommittedDist::5         2300362      2.43%     82.33% # Number of insts commited each cycle (Count)
system.cpu.commit.numCommittedDist::6         1292715      1.37%     83.70% # Number of insts commited each cycle (Count)
system.cpu.commit.numCommittedDist::7         1898382      2.01%     85.71% # Number of insts commited each cycle (Count)
system.cpu.commit.numCommittedDist::8        13507062     14.29%    100.00% # Number of insts commited each cycle (Count)
system.cpu.commit.numCommittedDist::overflows            0      0.00%    100.00% # Number of insts commited each cycle (Count)
system.cpu.commit.numCommittedDist::min_value            0                       # Number of insts commited each cycle (Count)
system.cpu.commit.numCommittedDist::max_value            8                       # Number of insts commited each cycle (Count)
system.cpu.commit.numCommittedDist::total     94516126                       # Number of insts commited each cycle (Count)
system.cpu.commit.instsCommitted            200000006                       # Number of instructions committed (Count)
system.cpu.commit.opsCommitted              227162985                       # Number of ops (including micro ops) committed (Count)
system.cpu.commit.memRefs                    79987457                       # Number of memory references committed (Count)
system.cpu.commit.loads                      49773152                       # Number of loads committed (Count)
system.cpu.commit.amos                              0                       # Number of atomic instructions committed (Count)
system.cpu.commit.membars                         417                       # Number of memory barriers committed (Count)
system.cpu.commit.branches                   37456961                       # Number of branches committed (Count)
system.cpu.commit.vectorInstructions                0                       # Number of committed Vector instructions. (Count)
system.cpu.commit.floating                          0                       # Number of committed floating point instructions. (Count)
system.cpu.commit.integer                   197759243                       # Number of committed integer instructions. (Count)
system.cpu.commit.functionCalls               3769269                       # Number of function calls committed. (Count)
system.cpu.commit.committedInstType_0::No_OpClass            0      0.00%      0.00% # Class of committed instruction (Count)
system.cpu.commit.committedInstType_0::IntAlu    146071351     64.30%     64.30% # Class of committed instruction (Count)
system.cpu.commit.committedInstType_0::IntMult      1104177      0.49%     64.79% # Class of committed instruction (Count)
system.cpu.commit.committedInstType_0::IntDiv            0      0.00%     64.79% # Class of committed instruction (Count)
system.cpu.commit.committedInstType_0::FloatAdd            0      0.00%     64.79% # Class of committed instruction (Count)
system.cpu.commit.committedInstType_0::FloatCmp            0      0.00%     64.79% # Class of committed instruction (Count)
system.cpu.commit.committedInstType_0::FloatCvt            0      0.00%     64.79% # Class of committed instruction (Count)
system.cpu.commit.committedInstType_0::FloatMult            0      0.00%     64.79% # Class of committed instruction (Count)
system.cpu.commit.committedInstType_0::FloatMultAcc            0      0.00%     64.79% # Class of committed instruction (Count)
system.cpu.commit.committedInstType_0::FloatDiv            0      0.00%     64.79% # Class of committed instruction (Count)
system.cpu.commit.committedInstType_0::FloatMisc            0      0.00%     64.79% # Class of committed instruction (Count)
system.cpu.commit.committedInstType_0::FloatSqrt            0      0.00%     64.79% # Class of committed instruction (Count)
system.cpu.commit.committedInstType_0::SimdAdd            0      0.00%     64.79% # Class of committed instruction (Count)
system.cpu.commit.committedInstType_0::SimdAddAcc            0      0.00%     64.79% # Class of committed instruction (Count)
system.cpu.commit.committedInstType_0::SimdAlu            0      0.00%     64.79% # Class of committed instruction (Count)
system.cpu.commit.committedInstType_0::SimdCmp            0      0.00%     64.79% # Class of committed instruction (Count)
system.cpu.commit.committedInstType_0::SimdCvt            0      0.00%     64.79% # Class of committed instruction (Count)
system.cpu.commit.committedInstType_0::SimdMisc            0      0.00%     64.79% # Class of committed instruction (Count)
system.cpu.commit.committedInstType_0::SimdMult            0      0.00%     64.79% # Class of committed instruction (Count)
system.cpu.commit.committedInstType_0::SimdMultAcc            0      0.00%     64.79% # Class of committed instruction (Count)
system.cpu.commit.committedInstType_0::SimdShift            0      0.00%     64.79% # Class of committed instruction (Count)
system.cpu.commit.committedInstType_0::SimdShiftAcc            0      0.00%     64.79% # Class of committed instruction (Count)
system.cpu.commit.committedInstType_0::SimdDiv            0      0.00%     64.79% # Class of committed instruction (Count)
system.cpu.commit.committedInstType_0::SimdSqrt            0      0.00%     64.79% # Class of committed instruction (Count)
system.cpu.commit.committedInstType_0::SimdFloatAdd            0      0.00%     64.79% # Class of committed instruction (Count)
system.cpu.commit.committedInstType_0::SimdFloatAlu            0      0.00%     64.79% # Class of committed instruction (Count)
system.cpu.commit.committedInstType_0::SimdFloatCmp            0      0.00%     64.79% # Class of committed instruction (Count)
system.cpu.commit.committedInstType_0::SimdFloatCvt            0      0.00%     64.79% # Class of committed instruction (Count)
system.cpu.commit.committedInstType_0::SimdFloatDiv            0      0.00%     64.79% # Class of committed instruction (Count)
system.cpu.commit.committedInstType_0::SimdFloatMisc            0      0.00%     64.79% # Class of committed instruction (Count)
system.cpu.commit.committedInstType_0::SimdFloatMult            0      0.00%     64.79% # Class of committed instruction (Count)
system.cpu.commit.committedInstType_0::SimdFloatMultAcc            0      0.00%     64.79% # Class of committed instruction (Count)
system.cpu.commit.committedInstType_0::SimdFloatSqrt            0      0.00%     64.79% # Class of committed instruction (Count)
system.cpu.commit.committedInstType_0::SimdReduceAdd            0      0.00%     64.79% # Class of committed instruction (Count)
system.cpu.commit.committedInstType_0::SimdReduceAlu            0      0.00%     64.79% # Class of committed instruction (Count)
system.cpu.commit.committedInstType_0::SimdReduceCmp            0      0.00%     64.79% # Class of committed instruction (Count)
system.cpu.commit.committedInstType_0::SimdFloatReduceAdd            0      0.00%     64.79% # Class of committed instruction (Count)
system.cpu.commit.committedInstType_0::SimdFloatReduceCmp            0      0.00%     64.79% # Class of committed instruction (Count)
system.cpu.commit.committedInstType_0::SimdAes            0      0.00%     64.79% # Class of committed instruction (Count)
system.cpu.commit.committedInstType_0::SimdAesMix            0      0.00%     64.79% # Class of committed instruction (Count)
system.cpu.commit.committedInstType_0::SimdSha1Hash            0      0.00%     64.79% # Class of committed instruction (Count)
system.cpu.commit.committedInstType_0::SimdSha1Hash2            0      0.00%     64.79% # Class of committed instruction (Count)
system.cpu.commit.committedInstType_0::SimdSha256Hash            0      0.00%     64.79% # Class of committed instruction (Count)
system.cpu.commit.committedInstType_0::SimdSha256Hash2            0      0.00%     64.79% # Class of committed instruction (Count)
system.cpu.commit.committedInstType_0::SimdShaSigma2            0      0.00%     64.79% # Class of committed instruction (Count)
system.cpu.commit.committedInstType_0::SimdShaSigma3            0      0.00%     64.79% # Class of committed instruction (Count)
system.cpu.commit.committedInstType_0::SimdPredAlu            0      0.00%     64.79% # Class of committed instruction (Count)
system.cpu.commit.committedInstType_0::MemRead     49773152     21.91%     86.70% # Class of committed instruction (Count)
system.cpu.commit.committedInstType_0::MemWrite     30214305     13.30%    100.00% # Class of committed instruction (Count)
system.cpu.commit.committedInstType_0::FloatMemRead            0      0.00%    100.00% # Class of committed instruction (Count)
system.cpu.commit.committedInstType_0::FloatMemWrite            0      0.00%    100.00% # Class of committed instruction (Count)
system.cpu.commit.committedInstType_0::IprAccess            0      0.00%    100.00% # Class of committed instruction (Count)
system.cpu.commit.committedInstType_0::InstPrefetch            0      0.00%    100.00% # Class of committed instruction (Count)
system.cpu.commit.committedInstType_0::total    227162985                       # Class of committed instruction (Count)
system.cpu.commit.commitEligibleSamples      13507062                       # number cycles where commit BW limit reached (Cycle)
system.cpu.dcache.demandHits::cpu.data       74114114                       # number of demand (read+write) hits (Count)
system.cpu.dcache.demandHits::total          74114114                       # number of demand (read+write) hits (Count)
system.cpu.dcache.overallHits::cpu.data      74114114                       # number of overall hits (Count)
system.cpu.dcache.overallHits::total         74114114                       # number of overall hits (Count)
system.cpu.dcache.demandMisses::cpu.data       396704                       # number of demand (read+write) misses (Count)
system.cpu.dcache.demandMisses::total          396704                       # number of demand (read+write) misses (Count)
system.cpu.dcache.overallMisses::cpu.data       396704                       # number of overall misses (Count)
system.cpu.dcache.overallMisses::total         396704                       # number of overall misses (Count)
system.cpu.dcache.demandMissLatency::cpu.data  28216042479                       # number of demand (read+write) miss ticks (Tick)
system.cpu.dcache.demandMissLatency::total  28216042479                       # number of demand (read+write) miss ticks (Tick)
system.cpu.dcache.overallMissLatency::cpu.data  28216042479                       # number of overall miss ticks (Tick)
system.cpu.dcache.overallMissLatency::total  28216042479                       # number of overall miss ticks (Tick)
system.cpu.dcache.demandAccesses::cpu.data     74510818                       # number of demand (read+write) accesses (Count)
system.cpu.dcache.demandAccesses::total      74510818                       # number of demand (read+write) accesses (Count)
system.cpu.dcache.overallAccesses::cpu.data     74510818                       # number of overall (read+write) accesses (Count)
system.cpu.dcache.overallAccesses::total     74510818                       # number of overall (read+write) accesses (Count)
system.cpu.dcache.demandMissRate::cpu.data     0.005324                       # miss rate for demand accesses (Ratio)
system.cpu.dcache.demandMissRate::total      0.005324                       # miss rate for demand accesses (Ratio)
system.cpu.dcache.overallMissRate::cpu.data     0.005324                       # miss rate for overall accesses (Ratio)
system.cpu.dcache.overallMissRate::total     0.005324                       # miss rate for overall accesses (Ratio)
system.cpu.dcache.demandAvgMissLatency::cpu.data 71126.185970                       # average overall miss latency in ticks ((Tick/Count))
system.cpu.dcache.demandAvgMissLatency::total 71126.185970                       # average overall miss latency in ticks ((Tick/Count))
system.cpu.dcache.overallAvgMissLatency::cpu.data 71126.185970                       # average overall miss latency ((Tick/Count))
system.cpu.dcache.overallAvgMissLatency::total 71126.185970                       # average overall miss latency ((Tick/Count))
system.cpu.dcache.blockedCycles::no_mshrs         3221                       # number of cycles access was blocked (Cycle)
system.cpu.dcache.blockedCycles::no_targets          432                       # number of cycles access was blocked (Cycle)
system.cpu.dcache.blockedCauses::no_mshrs           92                       # number of times access was blocked (Count)
system.cpu.dcache.blockedCauses::no_targets            5                       # number of times access was blocked (Count)
system.cpu.dcache.avgBlocked::no_mshrs      35.010870                       # average number of cycles each access was blocked ((Cycle/Count))
system.cpu.dcache.avgBlocked::no_targets    86.400000                       # average number of cycles each access was blocked ((Cycle/Count))
system.cpu.dcache.writebacks::writebacks        31708                       # number of writebacks (Count)
system.cpu.dcache.writebacks::total             31708                       # number of writebacks (Count)
system.cpu.dcache.demandMshrHits::cpu.data       343801                       # number of demand (read+write) MSHR hits (Count)
system.cpu.dcache.demandMshrHits::total        343801                       # number of demand (read+write) MSHR hits (Count)
system.cpu.dcache.overallMshrHits::cpu.data       343801                       # number of overall MSHR hits (Count)
system.cpu.dcache.overallMshrHits::total       343801                       # number of overall MSHR hits (Count)
system.cpu.dcache.demandMshrMisses::cpu.data        52903                       # number of demand (read+write) MSHR misses (Count)
system.cpu.dcache.demandMshrMisses::total        52903                       # number of demand (read+write) MSHR misses (Count)
system.cpu.dcache.overallMshrMisses::cpu.data        52903                       # number of overall MSHR misses (Count)
system.cpu.dcache.overallMshrMisses::total        52903                       # number of overall MSHR misses (Count)
system.cpu.dcache.demandMshrMissLatency::cpu.data   3637057992                       # number of demand (read+write) MSHR miss ticks (Tick)
system.cpu.dcache.demandMshrMissLatency::total   3637057992                       # number of demand (read+write) MSHR miss ticks (Tick)
system.cpu.dcache.overallMshrMissLatency::cpu.data   3637057992                       # number of overall MSHR miss ticks (Tick)
system.cpu.dcache.overallMshrMissLatency::total   3637057992                       # number of overall MSHR miss ticks (Tick)
system.cpu.dcache.demandMshrMissRate::cpu.data     0.000710                       # mshr miss ratio for demand accesses (Ratio)
system.cpu.dcache.demandMshrMissRate::total     0.000710                       # mshr miss ratio for demand accesses (Ratio)
system.cpu.dcache.overallMshrMissRate::cpu.data     0.000710                       # mshr miss ratio for overall accesses (Ratio)
system.cpu.dcache.overallMshrMissRate::total     0.000710                       # mshr miss ratio for overall accesses (Ratio)
system.cpu.dcache.demandAvgMshrMissLatency::cpu.data 68749.560365                       # average overall mshr miss latency ((Tick/Count))
system.cpu.dcache.demandAvgMshrMissLatency::total 68749.560365                       # average overall mshr miss latency ((Tick/Count))
system.cpu.dcache.overallAvgMshrMissLatency::cpu.data 68749.560365                       # average overall mshr miss latency ((Tick/Count))
system.cpu.dcache.overallAvgMshrMissLatency::total 68749.560365                       # average overall mshr miss latency ((Tick/Count))
system.cpu.dcache.replacements                  52389                       # number of replacements (Count)
system.cpu.dcache.LoadLockedReq.hits::cpu.data          423                       # number of LoadLockedReq hits (Count)
system.cpu.dcache.LoadLockedReq.hits::total          423                       # number of LoadLockedReq hits (Count)
system.cpu.dcache.LoadLockedReq.misses::cpu.data           13                       # number of LoadLockedReq misses (Count)
system.cpu.dcache.LoadLockedReq.misses::total           13                       # number of LoadLockedReq misses (Count)
system.cpu.dcache.LoadLockedReq.missLatency::cpu.data       472000                       # number of LoadLockedReq miss ticks (Tick)
system.cpu.dcache.LoadLockedReq.missLatency::total       472000                       # number of LoadLockedReq miss ticks (Tick)
system.cpu.dcache.LoadLockedReq.accesses::cpu.data          436                       # number of LoadLockedReq accesses(hits+misses) (Count)
system.cpu.dcache.LoadLockedReq.accesses::total          436                       # number of LoadLockedReq accesses(hits+misses) (Count)
system.cpu.dcache.LoadLockedReq.missRate::cpu.data     0.029817                       # miss rate for LoadLockedReq accesses (Ratio)
system.cpu.dcache.LoadLockedReq.missRate::total     0.029817                       # miss rate for LoadLockedReq accesses (Ratio)
system.cpu.dcache.LoadLockedReq.avgMissLatency::cpu.data 36307.692308                       # average LoadLockedReq miss latency ((Tick/Count))
system.cpu.dcache.LoadLockedReq.avgMissLatency::total 36307.692308                       # average LoadLockedReq miss latency ((Tick/Count))
system.cpu.dcache.LoadLockedReq.mshrHits::cpu.data           13                       # number of LoadLockedReq MSHR hits (Count)
system.cpu.dcache.LoadLockedReq.mshrHits::total           13                       # number of LoadLockedReq MSHR hits (Count)
system.cpu.dcache.ReadReq.hits::cpu.data     44786158                       # number of ReadReq hits (Count)
system.cpu.dcache.ReadReq.hits::total        44786158                       # number of ReadReq hits (Count)
system.cpu.dcache.ReadReq.misses::cpu.data       110806                       # number of ReadReq misses (Count)
system.cpu.dcache.ReadReq.misses::total        110806                       # number of ReadReq misses (Count)
system.cpu.dcache.ReadReq.missLatency::cpu.data   4909305000                       # number of ReadReq miss ticks (Tick)
system.cpu.dcache.ReadReq.missLatency::total   4909305000                       # number of ReadReq miss ticks (Tick)
system.cpu.dcache.ReadReq.accesses::cpu.data     44896964                       # number of ReadReq accesses(hits+misses) (Count)
system.cpu.dcache.ReadReq.accesses::total     44896964                       # number of ReadReq accesses(hits+misses) (Count)
system.cpu.dcache.ReadReq.missRate::cpu.data     0.002468                       # miss rate for ReadReq accesses (Ratio)
system.cpu.dcache.ReadReq.missRate::total     0.002468                       # miss rate for ReadReq accesses (Ratio)
system.cpu.dcache.ReadReq.avgMissLatency::cpu.data 44305.407649                       # average ReadReq miss latency ((Tick/Count))
system.cpu.dcache.ReadReq.avgMissLatency::total 44305.407649                       # average ReadReq miss latency ((Tick/Count))
system.cpu.dcache.ReadReq.mshrHits::cpu.data        85669                       # number of ReadReq MSHR hits (Count)
system.cpu.dcache.ReadReq.mshrHits::total        85669                       # number of ReadReq MSHR hits (Count)
system.cpu.dcache.ReadReq.mshrMisses::cpu.data        25137                       # number of ReadReq MSHR misses (Count)
system.cpu.dcache.ReadReq.mshrMisses::total        25137                       # number of ReadReq MSHR misses (Count)
system.cpu.dcache.ReadReq.mshrMissLatency::cpu.data   1333141500                       # number of ReadReq MSHR miss ticks (Tick)
system.cpu.dcache.ReadReq.mshrMissLatency::total   1333141500                       # number of ReadReq MSHR miss ticks (Tick)
system.cpu.dcache.ReadReq.mshrMissRate::cpu.data     0.000560                       # mshr miss rate for ReadReq accesses (Ratio)
system.cpu.dcache.ReadReq.mshrMissRate::total     0.000560                       # mshr miss rate for ReadReq accesses (Ratio)
system.cpu.dcache.ReadReq.avgMshrMissLatency::cpu.data 53035.028046                       # average ReadReq mshr miss latency ((Tick/Count))
system.cpu.dcache.ReadReq.avgMshrMissLatency::total 53035.028046                       # average ReadReq mshr miss latency ((Tick/Count))
system.cpu.dcache.StoreCondReq.hits::cpu.data          413                       # number of StoreCondReq hits (Count)
system.cpu.dcache.StoreCondReq.hits::total          413                       # number of StoreCondReq hits (Count)
system.cpu.dcache.StoreCondReq.accesses::cpu.data          413                       # number of StoreCondReq accesses(hits+misses) (Count)
system.cpu.dcache.StoreCondReq.accesses::total          413                       # number of StoreCondReq accesses(hits+misses) (Count)
system.cpu.dcache.WriteReq.hits::cpu.data     29327956                       # number of WriteReq hits (Count)
system.cpu.dcache.WriteReq.hits::total       29327956                       # number of WriteReq hits (Count)
system.cpu.dcache.WriteReq.misses::cpu.data       285898                       # number of WriteReq misses (Count)
system.cpu.dcache.WriteReq.misses::total       285898                       # number of WriteReq misses (Count)
system.cpu.dcache.WriteReq.missLatency::cpu.data  23306737479                       # number of WriteReq miss ticks (Tick)
system.cpu.dcache.WriteReq.missLatency::total  23306737479                       # number of WriteReq miss ticks (Tick)
system.cpu.dcache.WriteReq.accesses::cpu.data     29613854                       # number of WriteReq accesses(hits+misses) (Count)
system.cpu.dcache.WriteReq.accesses::total     29613854                       # number of WriteReq accesses(hits+misses) (Count)
system.cpu.dcache.WriteReq.missRate::cpu.data     0.009654                       # miss rate for WriteReq accesses (Ratio)
system.cpu.dcache.WriteReq.missRate::total     0.009654                       # miss rate for WriteReq accesses (Ratio)
system.cpu.dcache.WriteReq.avgMissLatency::cpu.data 81521.163069                       # average WriteReq miss latency ((Tick/Count))
system.cpu.dcache.WriteReq.avgMissLatency::total 81521.163069                       # average WriteReq miss latency ((Tick/Count))
system.cpu.dcache.WriteReq.mshrHits::cpu.data       258132                       # number of WriteReq MSHR hits (Count)
system.cpu.dcache.WriteReq.mshrHits::total       258132                       # number of WriteReq MSHR hits (Count)
system.cpu.dcache.WriteReq.mshrMisses::cpu.data        27766                       # number of WriteReq MSHR misses (Count)
system.cpu.dcache.WriteReq.mshrMisses::total        27766                       # number of WriteReq MSHR misses (Count)
system.cpu.dcache.WriteReq.mshrMissLatency::cpu.data   2303916492                       # number of WriteReq MSHR miss ticks (Tick)
system.cpu.dcache.WriteReq.mshrMissLatency::total   2303916492                       # number of WriteReq MSHR miss ticks (Tick)
system.cpu.dcache.WriteReq.mshrMissRate::cpu.data     0.000938                       # mshr miss rate for WriteReq accesses (Ratio)
system.cpu.dcache.WriteReq.mshrMissRate::total     0.000938                       # mshr miss rate for WriteReq accesses (Ratio)
system.cpu.dcache.WriteReq.avgMshrMissLatency::cpu.data 82976.175610                       # average WriteReq mshr miss latency ((Tick/Count))
system.cpu.dcache.WriteReq.avgMshrMissLatency::total 82976.175610                       # average WriteReq mshr miss latency ((Tick/Count))
system.cpu.dcache.power_state.pwrStateResidencyTicks::UNDEFINED  49152658000                       # Cumulative time (in ticks) in various power states (Tick)
system.cpu.dcache.tags.tagsInUse           511.035373                       # Average ticks per tags in use ((Tick/Count))
system.cpu.dcache.tags.totalRefs             74167854                       # Total number of references to valid blocks. (Count)
system.cpu.dcache.tags.sampledRefs              52901                       # Sample count of references to valid blocks. (Count)
system.cpu.dcache.tags.avgRefs            1402.012325                       # Average number of references to valid blocks. ((Count/Count))
system.cpu.dcache.tags.warmupTick              148500                       # The tick when the warmup percentage was hit. (Tick)
system.cpu.dcache.tags.occupancies::cpu.data   511.035373                       # Average occupied blocks per tick, per requestor ((Count/Tick))
system.cpu.dcache.tags.avgOccs::cpu.data     0.998116                       # Average percentage of cache occupancy ((Ratio/Tick))
system.cpu.dcache.tags.avgOccs::total        0.998116                       # Average percentage of cache occupancy ((Ratio/Tick))
system.cpu.dcache.tags.occupanciesTaskId::1024          512                       # Occupied blocks per task id (Count)
system.cpu.dcache.tags.ageTaskId_1024::0            2                       # Occupied blocks per task id, per block age (Count)
system.cpu.dcache.tags.ageTaskId_1024::1           20                       # Occupied blocks per task id, per block age (Count)
system.cpu.dcache.tags.ageTaskId_1024::2          205                       # Occupied blocks per task id, per block age (Count)
system.cpu.dcache.tags.ageTaskId_1024::3          159                       # Occupied blocks per task id, per block age (Count)
system.cpu.dcache.tags.ageTaskId_1024::4          126                       # Occupied blocks per task id, per block age (Count)
system.cpu.dcache.tags.ratioOccsTaskId::1024            1                       # Ratio of occupied blocks and all blocks, per task id (Ratio)
system.cpu.dcache.tags.tagAccesses          149076235                       # Number of tag accesses (Count)
system.cpu.dcache.tags.dataAccesses         149076235                       # Number of data accesses (Count)
system.cpu.dcache.tags.power_state.pwrStateResidencyTicks::UNDEFINED  49152658000                       # Cumulative time (in ticks) in various power states (Tick)
system.cpu.decode.idleCycles                 34005663                       # Number of cycles decode is idle (Cycle)
system.cpu.decode.blockedCycles              18620368                       # Number of cycles decode is blocked (Cycle)
system.cpu.decode.runCycles                  40012975                       # Number of cycles decode is running (Cycle)
system.cpu.decode.unblockCycles               4785858                       # Number of cycles decode is unblocking (Cycle)
system.cpu.decode.squashCycles                 790882                       # Number of cycles decode is squashing (Cycle)
system.cpu.decode.branchResolved             12824654                       # Number of times decode resolved a branch (Count)
system.cpu.decode.branchMispred                514966                       # Number of times decode detected a branch misprediction (Count)
system.cpu.decode.decodedInsts              262914089                       # Number of instructions handled by decode (Count)
system.cpu.decode.squashedInsts                  6786                       # Number of squashed instructions handled by decode (Count)
system.cpu.fetch.icacheStallCycles           42635570                       # Number of cycles fetch is stalled on an Icache miss (Cycle)
system.cpu.fetch.insts                      244849781                       # Number of instructions fetch has processed (Count)
system.cpu.fetch.branches                    47032058                       # Number of branches that fetch encountered (Count)
system.cpu.fetch.predictedBranches           18138520                       # Number of branches that fetch has predicted taken (Count)
system.cpu.fetch.cycles                      54274453                       # Number of cycles fetch has run and was not squashing or blocked (Cycle)
system.cpu.fetch.squashCycles                 2611098                       # Number of cycles fetch has spent squashing (Cycle)
system.cpu.fetch.miscStallCycles                  104                       # Number of cycles fetch has spent waiting on interrupts, or bad addresses, or out of MSHRs (Cycle)
system.cpu.fetch.pendingTrapStallCycles            16                       # Number of stall cycles due to pending traps (Cycle)
system.cpu.fetch.icacheWaitRetryStallCycles           54                       # Number of stall cycles due to full MSHR (Cycle)
system.cpu.fetch.cacheLines                  35331139                       # Number of cache lines fetched (Count)
system.cpu.fetch.icacheSquashes                356990                       # Number of outstanding Icache misses that were squashed (Count)
system.cpu.fetch.nisnDist::samples           98215746                       # Number of instructions fetched each cycle (Total) (Count)
system.cpu.fetch.nisnDist::mean              2.827324                       # Number of instructions fetched each cycle (Total) (Count)
system.cpu.fetch.nisnDist::stdev             3.390959                       # Number of instructions fetched each cycle (Total) (Count)
system.cpu.fetch.nisnDist::underflows               0      0.00%      0.00% # Number of instructions fetched each cycle (Total) (Count)
system.cpu.fetch.nisnDist::0                 49023163     49.91%     49.91% # Number of instructions fetched each cycle (Total) (Count)
system.cpu.fetch.nisnDist::1                  5058698      5.15%     55.06% # Number of instructions fetched each cycle (Total) (Count)
system.cpu.fetch.nisnDist::2                  5568234      5.67%     60.73% # Number of instructions fetched each cycle (Total) (Count)
system.cpu.fetch.nisnDist::3                  1920994      1.96%     62.69% # Number of instructions fetched each cycle (Total) (Count)
system.cpu.fetch.nisnDist::4                  4737020      4.82%     67.51% # Number of instructions fetched each cycle (Total) (Count)
system.cpu.fetch.nisnDist::5                  4186811      4.26%     71.78% # Number of instructions fetched each cycle (Total) (Count)
system.cpu.fetch.nisnDist::6                  2014361      2.05%     73.83% # Number of instructions fetched each cycle (Total) (Count)
system.cpu.fetch.nisnDist::7                  1890447      1.92%     75.75% # Number of instructions fetched each cycle (Total) (Count)
system.cpu.fetch.nisnDist::8                 23816018     24.25%    100.00% # Number of instructions fetched each cycle (Total) (Count)
system.cpu.fetch.nisnDist::overflows                0      0.00%    100.00% # Number of instructions fetched each cycle (Total) (Count)
system.cpu.fetch.nisnDist::min_value                0                       # Number of instructions fetched each cycle (Total) (Count)
system.cpu.fetch.nisnDist::max_value                8                       # Number of instructions fetched each cycle (Total) (Count)
system.cpu.fetch.nisnDist::total             98215746                       # Number of instructions fetched each cycle (Total) (Count)
system.cpu.fetch.branchRate                  0.478428                       # Number of branch fetches per cycle (Ratio)
system.cpu.fetch.rate                        2.490707                       # Number of inst fetches per cycle ((Count/Cycle))
system.cpu.icache.demandHits::cpu.inst       35065360                       # number of demand (read+write) hits (Count)
system.cpu.icache.demandHits::total          35065360                       # number of demand (read+write) hits (Count)
system.cpu.icache.overallHits::cpu.inst      35065360                       # number of overall hits (Count)
system.cpu.icache.overallHits::total         35065360                       # number of overall hits (Count)
system.cpu.icache.demandMisses::cpu.inst       265778                       # number of demand (read+write) misses (Count)
system.cpu.icache.demandMisses::total          265778                       # number of demand (read+write) misses (Count)
system.cpu.icache.overallMisses::cpu.inst       265778                       # number of overall misses (Count)
system.cpu.icache.overallMisses::total         265778                       # number of overall misses (Count)
system.cpu.icache.demandMissLatency::cpu.inst   3640722000                       # number of demand (read+write) miss ticks (Tick)
system.cpu.icache.demandMissLatency::total   3640722000                       # number of demand (read+write) miss ticks (Tick)
system.cpu.icache.overallMissLatency::cpu.inst   3640722000                       # number of overall miss ticks (Tick)
system.cpu.icache.overallMissLatency::total   3640722000                       # number of overall miss ticks (Tick)
system.cpu.icache.demandAccesses::cpu.inst     35331138                       # number of demand (read+write) accesses (Count)
system.cpu.icache.demandAccesses::total      35331138                       # number of demand (read+write) accesses (Count)
system.cpu.icache.overallAccesses::cpu.inst     35331138                       # number of overall (read+write) accesses (Count)
system.cpu.icache.overallAccesses::total     35331138                       # number of overall (read+write) accesses (Count)
system.cpu.icache.demandMissRate::cpu.inst     0.007522                       # miss rate for demand accesses (Ratio)
system.cpu.icache.demandMissRate::total      0.007522                       # miss rate for demand accesses (Ratio)
system.cpu.icache.overallMissRate::cpu.inst     0.007522                       # miss rate for overall accesses (Ratio)
system.cpu.icache.overallMissRate::total     0.007522                       # miss rate for overall accesses (Ratio)
system.cpu.icache.demandAvgMissLatency::cpu.inst 13698.357276                       # average overall miss latency in ticks ((Tick/Count))
system.cpu.icache.demandAvgMissLatency::total 13698.357276                       # average overall miss latency in ticks ((Tick/Count))
system.cpu.icache.overallAvgMissLatency::cpu.inst 13698.357276                       # average overall miss latency ((Tick/Count))
system.cpu.icache.overallAvgMissLatency::total 13698.357276                       # average overall miss latency ((Tick/Count))
system.cpu.icache.blockedCycles::no_mshrs         1078                       # number of cycles access was blocked (Cycle)
system.cpu.icache.blockedCycles::no_targets            0                       # number of cycles access was blocked (Cycle)
system.cpu.icache.blockedCauses::no_mshrs           25                       # number of times access was blocked (Count)
system.cpu.icache.blockedCauses::no_targets            0                       # number of times access was blocked (Count)
system.cpu.icache.avgBlocked::no_mshrs      43.120000                       # average number of cycles each access was blocked ((Cycle/Count))
system.cpu.icache.avgBlocked::no_targets          nan                       # average number of cycles each access was blocked ((Cycle/Count))
system.cpu.icache.demandMshrHits::cpu.inst         1083                       # number of demand (read+write) MSHR hits (Count)
system.cpu.icache.demandMshrHits::total          1083                       # number of demand (read+write) MSHR hits (Count)
system.cpu.icache.overallMshrHits::cpu.inst         1083                       # number of overall MSHR hits (Count)
system.cpu.icache.overallMshrHits::total         1083                       # number of overall MSHR hits (Count)
system.cpu.icache.demandMshrMisses::cpu.inst       264695                       # number of demand (read+write) MSHR misses (Count)
system.cpu.icache.demandMshrMisses::total       264695                       # number of demand (read+write) MSHR misses (Count)
system.cpu.icache.overallMshrMisses::cpu.inst       264695                       # number of overall MSHR misses (Count)
system.cpu.icache.overallMshrMisses::total       264695                       # number of overall MSHR misses (Count)
system.cpu.icache.demandMshrMissLatency::cpu.inst   3346750000                       # number of demand (read+write) MSHR miss ticks (Tick)
system.cpu.icache.demandMshrMissLatency::total   3346750000                       # number of demand (read+write) MSHR miss ticks (Tick)
system.cpu.icache.overallMshrMissLatency::cpu.inst   3346750000                       # number of overall MSHR miss ticks (Tick)
system.cpu.icache.overallMshrMissLatency::total   3346750000                       # number of overall MSHR miss ticks (Tick)
system.cpu.icache.demandMshrMissRate::cpu.inst     0.007492                       # mshr miss ratio for demand accesses (Ratio)
system.cpu.icache.demandMshrMissRate::total     0.007492                       # mshr miss ratio for demand accesses (Ratio)
system.cpu.icache.overallMshrMissRate::cpu.inst     0.007492                       # mshr miss ratio for overall accesses (Ratio)
system.cpu.icache.overallMshrMissRate::total     0.007492                       # mshr miss ratio for overall accesses (Ratio)
system.cpu.icache.demandAvgMshrMissLatency::cpu.inst 12643.797578                       # average overall mshr miss latency ((Tick/Count))
system.cpu.icache.demandAvgMshrMissLatency::total 12643.797578                       # average overall mshr miss latency ((Tick/Count))
system.cpu.icache.overallAvgMshrMissLatency::cpu.inst 12643.797578                       # average overall mshr miss latency ((Tick/Count))
system.cpu.icache.overallAvgMshrMissLatency::total 12643.797578                       # average overall mshr miss latency ((Tick/Count))
system.cpu.icache.replacements                 264184                       # number of replacements (Count)
system.cpu.icache.ReadReq.hits::cpu.inst     35065360                       # number of ReadReq hits (Count)
system.cpu.icache.ReadReq.hits::total        35065360                       # number of ReadReq hits (Count)
system.cpu.icache.ReadReq.misses::cpu.inst       265778                       # number of ReadReq misses (Count)
system.cpu.icache.ReadReq.misses::total        265778                       # number of ReadReq misses (Count)
system.cpu.icache.ReadReq.missLatency::cpu.inst   3640722000                       # number of ReadReq miss ticks (Tick)
system.cpu.icache.ReadReq.missLatency::total   3640722000                       # number of ReadReq miss ticks (Tick)
system.cpu.icache.ReadReq.accesses::cpu.inst     35331138                       # number of ReadReq accesses(hits+misses) (Count)
system.cpu.icache.ReadReq.accesses::total     35331138                       # number of ReadReq accesses(hits+misses) (Count)
system.cpu.icache.ReadReq.missRate::cpu.inst     0.007522                       # miss rate for ReadReq accesses (Ratio)
system.cpu.icache.ReadReq.missRate::total     0.007522                       # miss rate for ReadReq accesses (Ratio)
system.cpu.icache.ReadReq.avgMissLatency::cpu.inst 13698.357276                       # average ReadReq miss latency ((Tick/Count))
system.cpu.icache.ReadReq.avgMissLatency::total 13698.357276                       # average ReadReq miss latency ((Tick/Count))
system.cpu.icache.ReadReq.mshrHits::cpu.inst         1083                       # number of ReadReq MSHR hits (Count)
system.cpu.icache.ReadReq.mshrHits::total         1083                       # number of ReadReq MSHR hits (Count)
system.cpu.icache.ReadReq.mshrMisses::cpu.inst       264695                       # number of ReadReq MSHR misses (Count)
system.cpu.icache.ReadReq.mshrMisses::total       264695                       # number of ReadReq MSHR misses (Count)
system.cpu.icache.ReadReq.mshrMissLatency::cpu.inst   3346750000                       # number of ReadReq MSHR miss ticks (Tick)
system.cpu.icache.ReadReq.mshrMissLatency::total   3346750000                       # number of ReadReq MSHR miss ticks (Tick)
system.cpu.icache.ReadReq.mshrMissRate::cpu.inst     0.007492                       # mshr miss rate for ReadReq accesses (Ratio)
system.cpu.icache.ReadReq.mshrMissRate::total     0.007492                       # mshr miss rate for ReadReq accesses (Ratio)
system.cpu.icache.ReadReq.avgMshrMissLatency::cpu.inst 12643.797578                       # average ReadReq mshr miss latency ((Tick/Count))
system.cpu.icache.ReadReq.avgMshrMissLatency::total 12643.797578                       # average ReadReq mshr miss latency ((Tick/Count))
system.cpu.icache.power_state.pwrStateResidencyTicks::UNDEFINED  49152658000                       # Cumulative time (in ticks) in various power states (Tick)
system.cpu.icache.tags.tagsInUse           508.361767                       # Average ticks per tags in use ((Tick/Count))
system.cpu.icache.tags.totalRefs             35330055                       # Total number of references to valid blocks. (Count)
system.cpu.icache.tags.sampledRefs             264695                       # Sample count of references to valid blocks. (Count)
system.cpu.icache.tags.avgRefs             133.474584                       # Average number of references to valid blocks. ((Count/Count))
system.cpu.icache.tags.warmupTick               81500                       # The tick when the warmup percentage was hit. (Tick)
system.cpu.icache.tags.occupancies::cpu.inst   508.361767                       # Average occupied blocks per tick, per requestor ((Count/Tick))
system.cpu.icache.tags.avgOccs::cpu.inst     0.992894                       # Average percentage of cache occupancy ((Ratio/Tick))
system.cpu.icache.tags.avgOccs::total        0.992894                       # Average percentage of cache occupancy ((Ratio/Tick))
system.cpu.icache.tags.occupanciesTaskId::1024          509                       # Occupied blocks per task id (Count)
system.cpu.icache.tags.ageTaskId_1024::0            2                       # Occupied blocks per task id, per block age (Count)
system.cpu.icache.tags.ageTaskId_1024::1            6                       # Occupied blocks per task id, per block age (Count)
system.cpu.icache.tags.ageTaskId_1024::2            3                       # Occupied blocks per task id, per block age (Count)
system.cpu.icache.tags.ageTaskId_1024::4          498                       # Occupied blocks per task id, per block age (Count)
system.cpu.icache.tags.ratioOccsTaskId::1024     0.994141                       # Ratio of occupied blocks and all blocks, per task id (Ratio)
system.cpu.icache.tags.tagAccesses           70926971                       # Number of tag accesses (Count)
system.cpu.icache.tags.dataAccesses          70926971                       # Number of data accesses (Count)
system.cpu.icache.tags.power_state.pwrStateResidencyTicks::UNDEFINED  49152658000                       # Cumulative time (in ticks) in various power states (Tick)
system.cpu.iew.idleCycles                           0                       # Number of cycles IEW is idle (Cycle)
system.cpu.iew.squashCycles                    790882                       # Number of cycles IEW is squashing (Cycle)
system.cpu.iew.blockCycles                    2942200                       # Number of cycles IEW is blocking (Cycle)
system.cpu.iew.unblockCycles                    46296                       # Number of cycles IEW is unblocking (Cycle)
system.cpu.iew.dispatchedInsts              253316650                       # Number of instructions dispatched to IQ (Count)
system.cpu.iew.dispSquashedInsts                 3314                       # Number of squashed instructions skipped by dispatch (Count)
system.cpu.iew.dispLoadInsts                 55458449                       # Number of dispatched load instructions (Count)
system.cpu.iew.dispStoreInsts                32291801                       # Number of dispatched store instructions (Count)
system.cpu.iew.dispNonSpecInsts                   719                       # Number of dispatched non-speculative instructions (Count)
system.cpu.iew.iqFullEvents                      2712                       # Number of times the IQ has become full, causing a stall (Count)
system.cpu.iew.lsqFullEvents                    43590                       # Number of times the LSQ has become full, causing a stall (Count)
system.cpu.iew.memOrderViolationEvents           4776                       # Number of memory order violations (Count)
system.cpu.iew.predictedTakenIncorrect          10654                       # Number of branches that were predicted taken incorrectly (Count)
system.cpu.iew.predictedNotTakenIncorrect       947819                       # Number of branches that were predicted not taken incorrectly (Count)
system.cpu.iew.branchMispredicts               958473                       # Number of branch mispredicts detected at execute (Count)
system.cpu.iew.instsToCommit                234904983                       # Cumulative count of insts sent to commit (Count)
system.cpu.iew.writebackCount               234639576                       # Cumulative count of insts written-back (Count)
system.cpu.iew.producerInst                 141868713                       # Number of instructions producing a value (Count)
system.cpu.iew.consumerInst                 249518103                       # Number of instructions consuming a value (Count)
system.cpu.iew.wbRate                        2.386845                       # Insts written-back per cycle ((Count/Cycle))
system.cpu.iew.wbFanout                      0.568571                       # Average fanout of values written-back ((Count/Count))
system.cpu.lsq0.forwLoads                     6247922                       # Number of loads that had data forwarded from stores (Count)
system.cpu.lsq0.squashedLoads                 5685297                       # Number of loads squashed (Count)
system.cpu.lsq0.ignoredResponses                72466                       # Number of memory responses ignored because the instruction is squashed (Count)
system.cpu.lsq0.memOrderViolation                4776                       # Number of memory ordering violations (Count)
system.cpu.lsq0.squashedStores                2077496                       # Number of stores squashed (Count)
system.cpu.lsq0.rescheduledLoads              3893330                       # Number of loads that were rescheduled (Count)
system.cpu.lsq0.blockedByCache                     71                       # Number of times an access to memory failed due to the cache being blocked (Count)
system.cpu.lsq0.loadToUse::samples           49773152                       # Distribution of cycle latency between the first time a load is issued and its completion (Unspecified)
system.cpu.lsq0.loadToUse::mean              3.931062                       # Distribution of cycle latency between the first time a load is issued and its completion (Unspecified)
system.cpu.lsq0.loadToUse::stdev             6.598760                       # Distribution of cycle latency between the first time a load is issued and its completion (Unspecified)
system.cpu.lsq0.loadToUse::0-9               48008033     96.45%     96.45% # Distribution of cycle latency between the first time a load is issued and its completion (Unspecified)
system.cpu.lsq0.loadToUse::10-19              1020268      2.05%     98.50% # Distribution of cycle latency between the first time a load is issued and its completion (Unspecified)
system.cpu.lsq0.loadToUse::20-29               589300      1.18%     99.69% # Distribution of cycle latency between the first time a load is issued and its completion (Unspecified)
system.cpu.lsq0.loadToUse::30-39                89676      0.18%     99.87% # Distribution of cycle latency between the first time a load is issued and its completion (Unspecified)
system.cpu.lsq0.loadToUse::40-49                 3981      0.01%     99.88% # Distribution of cycle latency between the first time a load is issued and its completion (Unspecified)
system.cpu.lsq0.loadToUse::50-59                 2446      0.00%     99.88% # Distribution of cycle latency between the first time a load is issued and its completion (Unspecified)
system.cpu.lsq0.loadToUse::60-69                 5697      0.01%     99.89% # Distribution of cycle latency between the first time a load is issued and its completion (Unspecified)
system.cpu.lsq0.loadToUse::70-79                10569      0.02%     99.91% # Distribution of cycle latency between the first time a load is issued and its completion (Unspecified)
system.cpu.lsq0.loadToUse::80-89                 4453      0.01%     99.92% # Distribution of cycle latency between the first time a load is issued and its completion (Unspecified)
system.cpu.lsq0.loadToUse::90-99                 1492      0.00%     99.93% # Distribution of cycle latency between the first time a load is issued and its completion (Unspecified)
system.cpu.lsq0.loadToUse::100-109                849      0.00%     99.93% # Distribution of cycle latency between the first time a load is issued and its completion (Unspecified)
system.cpu.lsq0.loadToUse::110-119                524      0.00%     99.93% # Distribution of cycle latency between the first time a load is issued and its completion (Unspecified)
system.cpu.lsq0.loadToUse::120-129               5557      0.01%     99.94% # Distribution of cycle latency between the first time a load is issued and its completion (Unspecified)
system.cpu.lsq0.loadToUse::130-139               8585      0.02%     99.96% # Distribution of cycle latency between the first time a load is issued and its completion (Unspecified)
system.cpu.lsq0.loadToUse::140-149                514      0.00%     99.96% # Distribution of cycle latency between the first time a load is issued and its completion (Unspecified)
system.cpu.lsq0.loadToUse::150-159                764      0.00%     99.96% # Distribution of cycle latency between the first time a load is issued and its completion (Unspecified)
system.cpu.lsq0.loadToUse::160-169                568      0.00%     99.96% # Distribution of cycle latency between the first time a load is issued and its completion (Unspecified)
system.cpu.lsq0.loadToUse::170-179                231      0.00%     99.96% # Distribution of cycle latency between the first time a load is issued and its completion (Unspecified)
system.cpu.lsq0.loadToUse::180-189               7493      0.02%     99.98% # Distribution of cycle latency between the first time a load is issued and its completion (Unspecified)
[...]
system.mem_ctrl.dram.perBankRdBursts::7          1314                       # Per bank write bursts (Count)
system.mem_ctrl.dram.perBankRdBursts::8          1362                       # Per bank write bursts (Count)
system.mem_ctrl.dram.perBankRdBursts::9          1346                       # Per bank write bursts (Count)
system.mem_ctrl.dram.perBankRdBursts::10         1359                       # Per bank write bursts (Count)
system.mem_ctrl.dram.perBankRdBursts::11         1306                       # Per bank write bursts (Count)
system.mem_ctrl.dram.perBankRdBursts::12         1297                       # Per bank write bursts (Count)
system.mem_ctrl.dram.perBankRdBursts::13         1288                       # Per bank write bursts (Count)
system.mem_ctrl.dram.perBankRdBursts::14         1303                       # Per bank write bursts (Count)
system.mem_ctrl.dram.perBankRdBursts::15         1348                       # Per bank write bursts (Count)
system.mem_ctrl.dram.perBankRdBursts::16         1310                       # Per bank write bursts (Count)
system.mem_ctrl.dram.perBankRdBursts::17         1318                       # Per bank write bursts (Count)
system.mem_ctrl.dram.perBankRdBursts::18         1352                       # Per bank write bursts (Count)
system.mem_ctrl.dram.perBankRdBursts::19         1294                       # Per bank write bursts (Count)
system.mem_ctrl.dram.perBankRdBursts::20         1296                       # Per bank write bursts (Count)
system.mem_ctrl.dram.perBankRdBursts::21         1348                       # Per bank write bursts (Count)
system.mem_ctrl.dram.perBankRdBursts::22         1316                       # Per bank write bursts (Count)
system.mem_ctrl.dram.perBankRdBursts::23         1250                       # Per bank write bursts (Count)
system.mem_ctrl.dram.perBankRdBursts::24         1156                       # Per bank write bursts (Count)
system.mem_ctrl.dram.perBankRdBursts::25         1231                       # Per bank write bursts (Count)
system.mem_ctrl.dram.perBankRdBursts::26         1289                       # Per bank write bursts (Count)
system.mem_ctrl.dram.perBankRdBursts::27         1178                       # Per bank write bursts (Count)
system.mem_ctrl.dram.perBankRdBursts::28         1185                       # Per bank write bursts (Count)
system.mem_ctrl.dram.perBankRdBursts::29         1236                       # Per bank write bursts (Count)
system.mem_ctrl.dram.perBankRdBursts::30         1292                       # Per bank write bursts (Count)
system.mem_ctrl.dram.perBankRdBursts::31         1284                       # Per bank write bursts (Count)
system.mem_ctrl.dram.perBankWrBursts::0           710                       # Per bank write bursts (Count)
system.mem_ctrl.dram.perBankWrBursts::1           673                       # Per bank write bursts (Count)
system.mem_ctrl.dram.perBankWrBursts::2           647                       # Per bank write bursts (Count)
system.mem_ctrl.dram.perBankWrBursts::3           643                       # Per bank write bursts (Count)
system.mem_ctrl.dram.perBankWrBursts::4           768                       # Per bank write bursts (Count)
system.mem_ctrl.dram.perBankWrBursts::5           768                       # Per bank write bursts (Count)
system.mem_ctrl.dram.perBankWrBursts::6           768                       # Per bank write bursts (Count)
system.mem_ctrl.dram.perBankWrBursts::7           768                       # Per bank write bursts (Count)
system.mem_ctrl.dram.perBankWrBursts::8           768                       # Per bank write bursts (Count)
system.mem_ctrl.dram.perBankWrBursts::9           768                       # Per bank write bursts (Count)
system.mem_ctrl.dram.perBankWrBursts::10          768                       # Per bank write bursts (Count)
system.mem_ctrl.dram.perBankWrBursts::11          768                       # Per bank write bursts (Count)
system.mem_ctrl.dram.perBankWrBursts::12          768                       # Per bank write bursts (Count)
system.mem_ctrl.dram.perBankWrBursts::13          768                       # Per bank write bursts (Count)
system.mem_ctrl.dram.perBankWrBursts::14          768                       # Per bank write bursts (Count)
system.mem_ctrl.dram.perBankWrBursts::15          768                       # Per bank write bursts (Count)
system.mem_ctrl.dram.perBankWrBursts::16          768                       # Per bank write bursts (Count)
system.mem_ctrl.dram.perBankWrBursts::17          768                       # Per bank write bursts (Count)
system.mem_ctrl.dram.perBankWrBursts::18          768                       # Per bank write bursts (Count)
system.mem_ctrl.dram.perBankWrBursts::19          765                       # Per bank write bursts (Count)
system.mem_ctrl.dram.perBankWrBursts::20          768                       # Per bank write bursts (Count)
system.mem_ctrl.dram.perBankWrBursts::21          768                       # Per bank write bursts (Count)
system.mem_ctrl.dram.perBankWrBursts::22          768                       # Per bank write bursts (Count)
system.mem_ctrl.dram.perBankWrBursts::23          768                       # Per bank write bursts (Count)
system.mem_ctrl.dram.perBankWrBursts::24          768                       # Per bank write bursts (Count)
system.mem_ctrl.dram.perBankWrBursts::25          768                       # Per bank write bursts (Count)
system.mem_ctrl.dram.perBankWrBursts::26          802                       # Per bank write bursts (Count)
system.mem_ctrl.dram.perBankWrBursts::27          775                       # Per bank write bursts (Count)
system.mem_ctrl.dram.perBankWrBursts::28          768                       # Per bank write bursts (Count)
system.mem_ctrl.dram.perBankWrBursts::29          790                       # Per bank write bursts (Count)
system.mem_ctrl.dram.perBankWrBursts::30          835                       # Per bank write bursts (Count)
system.mem_ctrl.dram.perBankWrBursts::31          683                       # Per bank write bursts (Count)
system.mem_ctrl.dram.totQLat                874265336                       # Total ticks spent queuing (Tick)
system.mem_ctrl.dram.totBusLat              139594140                       # Total ticks spent in databus transfers (Tick)
system.mem_ctrl.dram.totMemAccLat          1607092676                       # Total ticks spent from burst creation until serviced by the DRAM (Tick)
system.mem_ctrl.dram.avgQLat                 20868.01                       # Average queueing delay per DRAM burst ((Tick/Count))
system.mem_ctrl.dram.avgBusLat                3332.00                       # Average bus latency per DRAM burst ((Tick/Count))
system.mem_ctrl.dram.avgMemAccLat            38360.01                       # Average memory access latency per DRAM burst ((Tick/Count))
system.mem_ctrl.dram.readRowHits                28414                       # Number of row buffer hits during reads (Count)
system.mem_ctrl.dram.writeRowHits               21664                       # Number of row buffer hits during writes (Count)
system.mem_ctrl.dram.readRowHitRate             67.82                       # Row buffer hit rate for reads (Ratio)
system.mem_ctrl.dram.writeRowHitRate            89.45                       # Row buffer hit rate for writes (Ratio)
system.mem_ctrl.dram.bytesPerActivate::samples        16036                       # Bytes accessed per row activation (Byte)
system.mem_ctrl.dram.bytesPerActivate::mean   263.862310                       # Bytes accessed per row activation (Byte)
system.mem_ctrl.dram.bytesPerActivate::gmean   167.985791                       # Bytes accessed per row activation (Byte)
system.mem_ctrl.dram.bytesPerActivate::stdev   303.674769                       # Bytes accessed per row activation (Byte)
system.mem_ctrl.dram.bytesPerActivate::0-127         4128     25.74%     25.74% # Bytes accessed per row activation (Byte)
system.mem_ctrl.dram.bytesPerActivate::128-255         8617     53.74%     79.48% # Bytes accessed per row activation (Byte)
system.mem_ctrl.dram.bytesPerActivate::256-383          358      2.23%     81.71% # Bytes accessed per row activation (Byte)
system.mem_ctrl.dram.bytesPerActivate::384-511          246      1.53%     83.24% # Bytes accessed per row activation (Byte)
system.mem_ctrl.dram.bytesPerActivate::512-639          509      3.17%     86.42% # Bytes accessed per row activation (Byte)
system.mem_ctrl.dram.bytesPerActivate::640-767          121      0.75%     87.17% # Bytes accessed per row activation (Byte)
system.mem_ctrl.dram.bytesPerActivate::768-895          109      0.68%     87.85% # Bytes accessed per row activation (Byte)
system.mem_ctrl.dram.bytesPerActivate::896-1023          188      1.17%     89.02% # Bytes accessed per row activation (Byte)
system.mem_ctrl.dram.bytesPerActivate::1024-1151         1760     10.98%    100.00% # Bytes accessed per row activation (Byte)
system.mem_ctrl.dram.bytesPerActivate::total        16036                       # Bytes accessed per row activation (Byte)
system.mem_ctrl.dram.bytesRead                2681280                       # Total bytes read (Byte)
system.mem_ctrl.dram.bytesWritten             1550016                       # Total bytes written (Byte)
system.mem_ctrl.dram.avgRdBW                54.550051                       # Average DRAM read bandwidth in MiBytes/s ((Byte/Second))
system.mem_ctrl.dram.avgWrBW                31.534734                       # Average DRAM write bandwidth in MiBytes/s ((Byte/Second))
system.mem_ctrl.dram.peakBW                  19207.00                       # Theoretical peak bandwidth in MiByte/s ((Byte/Second))
system.mem_ctrl.dram.busUtil                     0.45                       # Data bus utilization in percentage (Ratio)
system.mem_ctrl.dram.busUtilRead                 0.28                       # Data bus utilization in percentage for reads (Ratio)
system.mem_ctrl.dram.busUtilWrite                0.16                       # Data bus utilization in percentage for writes (Ratio)
system.mem_ctrl.dram.pageHitRate                75.74                       # Row buffer hit rate, read and write combined (Ratio)
system.mem_ctrl.dram.power_state.pwrStateResidencyTicks::UNDEFINED  49152658000                       # Cumulative time (in ticks) in various power states (Tick)
system.mem_ctrl.dram.rank0.actEnergy     25084122.336001                       # Energy for activate commands per rank (pJ) (Joule)
system.mem_ctrl.dram.rank0.preEnergy     33349019.054399                       # Energy for precharge commands per rank (pJ) (Joule)
system.mem_ctrl.dram.rank0.readEnergy    90688190.207994                       # Energy for read commands per rank (pJ) (Joule)
system.mem_ctrl.dram.rank0.writeEnergy   44684758.944000                       # Energy for write commands per rank (pJ) (Joule)
system.mem_ctrl.dram.rank0.refreshEnergy 8745888960.514015                       # Energy for refresh commands per rank (pJ) (Joule)
system.mem_ctrl.dram.rank0.actBackEnergy 16830779394.240318                       # Energy for active background per rank (pJ) (Joule)
system.mem_ctrl.dram.rank0.preBackEnergy 19154731233.523808                       # Energy for precharge background per rank (pJ) (Joule)
system.mem_ctrl.dram.rank0.actPowerDownEnergy            0                       # Energy for active power-down per rank (pJ) (Joule)
system.mem_ctrl.dram.rank0.prePowerDownEnergy            0                       # Energy for precharge power-down per rank (pJ) (Joule)
system.mem_ctrl.dram.rank0.selfRefreshEnergy            0                       # Energy for self refresh per rank (pJ) (Joule)
system.mem_ctrl.dram.rank0.totalEnergy   44925205678.820267                       # Total energy per rank (pJ) (Joule)
system.mem_ctrl.dram.rank0.averagePower    913.993414                       # Core power per rank (mW) (Watt)
system.mem_ctrl.dram.rank0.totalIdleTime            0                       # Total Idle time Per DRAM Rank (Tick)
system.mem_ctrl.dram.rank0.pwrStateTime::IDLE  29202730854                       # Time in different power states (Tick)
system.mem_ctrl.dram.rank0.pwrStateTime::REF   2209550000                       # Time in different power states (Tick)
system.mem_ctrl.dram.rank0.pwrStateTime::SREF            0                       # Time in different power states (Tick)
system.mem_ctrl.dram.rank0.pwrStateTime::PRE_PDN            0                       # Time in different power states (Tick)
system.mem_ctrl.dram.rank0.pwrStateTime::ACT  17740377146                       # Time in different power states (Tick)
system.mem_ctrl.dram.rank0.pwrStateTime::ACT_PDN            0                       # Time in different power states (Tick)
system.mem_ctrl.dram.rank1.actEnergy     24928184.736001                       # Energy for activate commands per rank (pJ) (Joule)
system.mem_ctrl.dram.rank1.preEnergy     33141702.014398                       # Energy for precharge commands per rank (pJ) (Joule)
system.mem_ctrl.dram.rank1.readEnergy    85535452.127995                       # Energy for read commands per rank (pJ) (Joule)
system.mem_ctrl.dram.rank1.writeEnergy   46342255.680000                       # Energy for write commands per rank (pJ) (Joule)
system.mem_ctrl.dram.rank1.refreshEnergy 8745888960.514015                       # Energy for refresh commands per rank (pJ) (Joule)
system.mem_ctrl.dram.rank1.actBackEnergy 18486586882.209911                       # Energy for active background per rank (pJ) (Joule)
system.mem_ctrl.dram.rank1.preBackEnergy 17882472372.710941                       # Energy for precharge background per rank (pJ) (Joule)
system.mem_ctrl.dram.rank1.actPowerDownEnergy            0                       # Energy for active power-down per rank (pJ) (Joule)
system.mem_ctrl.dram.rank1.prePowerDownEnergy            0                       # Energy for precharge power-down per rank (pJ) (Joule)
system.mem_ctrl.dram.rank1.selfRefreshEnergy            0                       # Energy for self refresh per rank (pJ) (Joule)
system.mem_ctrl.dram.rank1.totalEnergy   45304895809.992958                       # Total energy per rank (pJ) (Joule)
system.mem_ctrl.dram.rank1.averagePower    921.718126                       # Core power per rank (mW) (Watt)
system.mem_ctrl.dram.rank1.totalIdleTime            0                       # Total Idle time Per DRAM Rank (Tick)
system.mem_ctrl.dram.rank1.pwrStateTime::IDLE  27245933364                       # Time in different power states (Tick)
system.mem_ctrl.dram.rank1.pwrStateTime::REF   2209550000                       # Time in different power states (Tick)
system.mem_ctrl.dram.rank1.pwrStateTime::SREF            0                       # Time in different power states (Tick)
system.mem_ctrl.dram.rank1.pwrStateTime::PRE_PDN            0                       # Time in different power states (Tick)
system.mem_ctrl.dram.rank1.pwrStateTime::ACT  19697174636                       # Time in different power states (Tick)
system.mem_ctrl.dram.rank1.pwrStateTime::ACT_PDN            0                       # Time in different power states (Tick)
system.mem_ctrl.power_state.pwrStateResidencyTicks::UNDEFINED  49152658000                       # Cumulative time (in ticks) in various power states (Tick)
system.membus.transDist::ReadResp               14599                       # Transaction distribution (Count)
system.membus.transDist::WritebackDirty         24283                       # Transaction distribution (Count)
system.membus.transDist::CleanEvict             12999                       # Transaction distribution (Count)
system.membus.transDist::ReadExReq              27303                       # Transaction distribution (Count)
system.membus.transDist::ReadExResp             27303                       # Transaction distribution (Count)
system.membus.transDist::ReadSharedReq          14599                       # Transaction distribution (Count)
system.membus.pktCount_system.l2cache.mem_side_port::system.mem_ctrl.port       121086                       # Packet count per connected requestor and responder (Count)
system.membus.pktCount::total                  121086                       # Packet count per connected requestor and responder (Count)
system.membus.pktSize_system.l2cache.mem_side_port::system.mem_ctrl.port      4235840                       # Cumulative packet size per connected requestor and responder (Byte)
system.membus.pktSize::total                  4235840                       # Cumulative packet size per connected requestor and responder (Byte)
system.membus.snoops                                0                       # Total snoops (Count)
system.membus.snoopTraffic                          0                       # Total snoop traffic (Byte)
system.membus.snoopFanout::samples              41902                       # Request fanout histogram (Count)
system.membus.snoopFanout::mean                     0                       # Request fanout histogram (Count)
system.membus.snoopFanout::stdev                    0                       # Request fanout histogram (Count)
system.membus.snoopFanout::underflows               0      0.00%      0.00% # Request fanout histogram (Count)
system.membus.snoopFanout::0                    41902    100.00%    100.00% # Request fanout histogram (Count)
system.membus.snoopFanout::1                        0      0.00%    100.00% # Request fanout histogram (Count)
system.membus.snoopFanout::overflows                0      0.00%    100.00% # Request fanout histogram (Count)
system.membus.snoopFanout::min_value                0                       # Request fanout histogram (Count)
system.membus.snoopFanout::max_value                0                       # Request fanout histogram (Count)
system.membus.snoopFanout::total                41902                       # Request fanout histogram (Count)
system.membus.power_state.pwrStateResidencyTicks::UNDEFINED  49152658000                       # Cumulative time (in ticks) in various power states (Tick)
system.membus.reqLayer0.occupancy            88158000                       # Layer occupancy (ticks) (Tick)
system.membus.reqLayer0.utilization               0.0                       # Layer utilization (Ratio)
system.membus.respLayer0.occupancy          109989324                       # Layer occupancy (ticks) (Tick)
system.membus.respLayer0.utilization              0.0                       # Layer utilization (Ratio)
system.membus.snoop_filter.totRequests          79184                       # Total number of requests made to the snoop filter. (Count)
system.membus.snoop_filter.hitSingleRequests        37310                       # Number of requests hitting in the snoop filter with a single holder of the requested data. (Count)
system.membus.snoop_filter.hitMultiRequests            0                       # Number of requests hitting in the snoop filter with multiple (>1) holders of the requested data. (Count)
system.membus.snoop_filter.totSnoops                0                       # Total number of snoops made to the snoop filter. (Count)
system.membus.snoop_filter.hitSingleSnoops            0                       # Number of snoops hitting in the snoop filter with a single holder of the requested data. (Count)
system.membus.snoop_filter.hitMultiSnoops            0                       # Number of snoops hitting in the snoop filter with multiple (>1) holders of the requested data. (Count)
system.workload.inst.arm                            0                       # number of arm instructions executed (Count)
system.workload.inst.quiesce                        0                       # number of quiesce instructions executed (Count)

---------- End Simulation Statistics   ----------
