
---------- Begin Simulation Statistics ----------
simSeconds                                   0.050562                       # Number of seconds simulated (Second)
simTicks                                  50561530500                       # Number of ticks simulated (Tick)
finalTick                                 50561530500                       # Number of ticks from beginning of simulation (restored from checkpoints and never reset) (Tick)
simFreq                                  1000000000000                       # The number of ticks per simulated second ((Tick/Second))
hostSeconds                                    674.12                       # Real time elapsed on the host (Second)
hostTickRate                                 75003369                       # The number of ticks simulated per host second (ticks/s) ((Tick/Second))
hostMemory                                    2247168                       # Number of bytes of host memory used (Byte)
simInsts                                    200000006                       # Number of instructions simulated (Count)
simOps                                      227162985                       # Number of ops (including micro ops) simulated (Count)
hostInstRate                                   296682                       # Simulator instruction rate (inst/s) ((Count/Second))
hostOpRate                                     336975                       # Simulator op (including micro ops) rate (op/s) ((Count/Second))
system.clk_domain.clock                           500                       # Clock period in ticks (Tick)
system.clk_domain.voltage_domain.voltage            1                       # Voltage in Volts (Volt)
system.cpu.numCycles                        101123062                       # Number of cpu cycles simulated (Cycle)
system.cpu.numWorkItemsStarted                      0                       # Number of work items this cpu started (Count)
system.cpu.numWorkItemsCompleted                    0                       # Number of work items this cpu completed (Count)
system.cpu.instsAdded                       259668970                       # Number of instructions added to the IQ (excludes non-spec) (Count)
system.cpu.nonSpecInstsAdded                     1135                       # Number of non-speculative instructions added to the IQ (Count)
system.cpu.instsIssued                      243931660                       # Number of instructions issued (Count)
system.cpu.squashedInstsIssued                   1812                       # Number of squashed instructions issued (Count)
system.cpu.squashedInstsExamined             32507101                       # Number of squashed instructions iterated over during squash; mainly for profiling (Count)
system.cpu.squashedOperandsExamined          95364107                       # Number of squashed operands that are examined and possibly removed from graph (Count)
system.cpu.squashedNonSpecRemoved                 100                       # Number of squashed non-spec instructions that were removed (Count)
system.cpu.numIssuedDist::samples           101038080                       # Number of insts issued each cycle (Count)
system.cpu.numIssuedDist::mean               2.414255                       # Number of insts issued each cycle (Count)
system.cpu.numIssuedDist::stdev              1.964094                       # Number of insts issued each cycle (Count)
system.cpu.numIssuedDist::underflows                0      0.00%      0.00% # Number of insts issued each cycle (Count)
system.cpu.numIssuedDist::0                  18258785     18.07%     18.07% # Number of insts issued each cycle (Count)
system.cpu.numIssuedDist::1                  19512663     19.31%     37.38% # Number of insts issued each cycle (Count)
system.cpu.numIssuedDist::2                  21353010     21.13%     58.52% # Number of insts issued each cycle (Count)
system.cpu.numIssuedDist::3                  16129326     15.96%     74.48% # Number of insts issued each cycle (Count)
system.cpu.numIssuedDist::4                   9483857      9.39%     83.87% # Number of insts issued each cycle (Count)
system.cpu.numIssuedDist::5                   8487490      8.40%     92.27% # Number of insts issued each cycle (Count)
system.cpu.numIssuedDist::6                   3954912      3.91%     96.18% # Number of insts issued each cycle (Count)
system.cpu.numIssuedDist::7                   1641647      1.62%     97.81% # Number of insts issued each cycle (Count)
system.cpu.numIssuedDist::8                   2216390      2.19%    100.00% # Number of insts issued each cycle (Count)
system.cpu.numIssuedDist::overflows                 0      0.00%    100.00% # Number of insts issued each cycle (Count)
system.cpu.numIssuedDist::min_value                 0                       # Number of insts issued each cycle (Count)
system.cpu.numIssuedDist::max_value                 8                       # Number of insts issued each cycle (Count)
system.cpu.numIssuedDist::total             101038080                       # Number of insts issued each cycle (Count)
system.cpu.statFuBusy::No_OpClass                   0      0.00%      0.00% # attempts to use FU when none available (Count)
system.cpu.statFuBusy::IntAlu                  476311     14.97%     14.97% # attempts to use FU when none available (Count)
system.cpu.statFuBusy::IntMult                      0      0.00%     14.97% # attempts to use FU when none available (Count)
system.cpu.statFuBusy::IntDiv                       0      0.00%     14.97% # attempts to use FU when none available (Count)
system.cpu.statFuBusy::FloatAdd                     0      0.00%     14.97% # attempts to use FU when none available (Count)
system.cpu.statFuBusy::FloatCmp                     0      0.00%     14.97% # attempts to use FU when none available (Count)
system.cpu.statFuBusy::FloatCvt                     0      0.00%     14.97% # attempts to use FU when none available (Count)
system.cpu.statFuBusy::FloatMult                    0      0.00%     14.97% # attempts to use FU when none available (Count)
system.cpu.statFuBusy::FloatMultAcc                 0      0.00%     14.97% # attempts to use FU when none available (Count)
system.cpu.statFuBusy::FloatDiv                     0      0.00%     14.97% # attempts to use FU when none available (Count)
system.cpu.statFuBusy::FloatMisc                    0      0.00%     14.97% # attempts to use FU when none available (Count)
system.cpu.statFuBusy::FloatSqrt                    0      0.00%     14.97% # attempts to use FU when none available (Count)
system.cpu.statFuBusy::SimdAdd                      0      0.00%     14.97% # attempts to use FU when none available (Count)
system.cpu.statFuBusy::SimdAddAcc                   0      0.00%     14.97% # attempts to use FU when none available (Count)
system.cpu.statFuBusy::SimdAlu                      0      0.00%     14.97% # attempts to use FU when none available (Count)
system.cpu.statFuBusy::SimdCmp                      0      0.00%     14.97% # attempts to use FU when none available (Count)
system.cpu.statFuBusy::SimdCvt                      0      0.00%     14.97% # attempts to use FU when none available (Count)
system.cpu.statFuBusy::SimdMisc                     0      0.00%     14.97% # attempts to use FU when none available (Count)
system.cpu.statFuBusy::SimdMult                     0      0.00%     14.97% # attempts to use FU when none available (Count)
system.cpu.statFuBusy::SimdMultAcc                  0      0.00%     14.97% # attempts to use FU when none available (Count)
system.cpu.statFuBusy::SimdShift                    0      0.00%     14.97% # attempts to use FU when none available (Count)
system.cpu.statFuBusy::SimdShiftAcc                 0      0.00%     14.97% # attempts to use FU when none available (Count)
system.cpu.statFuBusy::SimdDiv                      0      0.00%     14.97% # attempts to use FU when none available (Count)
system.cpu.statFuBusy::SimdSqrt                     0      0.00%     14.97% # attempts to use FU when none available (Count)
system.cpu.statFuBusy::SimdFloatAdd                 0      0.00%     14.97% # attempts to use FU when none available (Count)
system.cpu.statFuBusy::SimdFloatAlu                 0      0.00%     14.97% # attempts to use FU when none available (Count)
system.cpu.statFuBusy::SimdFloatCmp                 0      0.00%     14.97% # attempts to use FU when none available (Count)
system.cpu.statFuBusy::SimdFloatCvt                 0      0.00%     14.97% # attempts to use FU when none available (Count)
system.cpu.statFuBusy::SimdFloatDiv                 0      0.00%     14.97% # attempts to use FU when none available (Count)
system.cpu.statFuBusy::SimdFloatMisc                0      0.00%     14.97% # attempts to use FU when none available (Count)
system.cpu.statFuBusy::SimdFloatMult                0      0.00%     14.97% # attempts to use FU when none available (Count)
system.cpu.statFuBusy::SimdFloatMultAcc             0      0.00%     14.97% # attempts to use FU when none available (Count)
system.cpu.statFuBusy::SimdFloatSqrt                0      0.00%     14.97% # attempts to use FU when none available (Count)
system.cpu.statFuBusy::SimdReduceAdd                0      0.00%     14.97% # attempts to use FU when none available (Count)
system.cpu.statFuBusy::SimdReduceAlu                0      0.00%     14.97% # attempts to use FU when none available (Count)
system.cpu.statFuBusy::SimdReduceCmp                0      0.00%     14.97% # attempts to use FU when none available (Count)
system.cpu.statFuBusy::SimdFloatReduceAdd            0      0.00%     14.97% # attempts to use FU when none available (Count)
system.cpu.statFuBusy::SimdFloatReduceCmp            0      0.00%     14.97% # attempts to use FU when none available (Count)
system.cpu.statFuBusy::SimdAes                      0      0.00%     14.97% # attempts to use FU when none available (Count)
system.cpu.statFuBusy::SimdAesMix                   0      0.00%     14.97% # attempts to use FU when none available (Count)
system.cpu.statFuBusy::SimdSha1Hash                 0      0.00%     14.97% # attempts to use FU when none available (Count)
system.cpu.statFuBusy::SimdSha1Hash2                0      0.00%     14.97% # attempts to use FU when none available (Count)
system.cpu.statFuBusy::SimdSha256Hash               0      0.00%     14.97% # attempts to use FU when none available (Count)
system.cpu.statFuBusy::SimdSha256Hash2              0      0.00%     14.97% # attempts to use FU when none available (Count)
system.cpu.statFuBusy::SimdShaSigma2                0      0.00%     14.97% # attempts to use FU when none available (Count)
system.cpu.statFuBusy::SimdShaSigma3                0      0.00%     14.97% # attempts to use FU when none available (Count)
system.cpu.statFuBusy::SimdPredAlu                  0      0.00%     14.97% # attempts to use FU when none available (Count)
system.cpu.statFuBusy::MemRead                1881710     59.13%     74.10% # attempts to use FU when none available (Count)
system.cpu.statFuBusy::MemWrite                824132     25.90%    100.00% # attempts to use FU when none available (Count)
system.cpu.statFuBusy::FloatMemRead                 0      0.00%    100.00% # attempts to use FU when none available (Count)
system.cpu.statFuBusy::FloatMemWrite                0      0.00%    100.00% # attempts to use FU when none available (Count)
system.cpu.statFuBusy::IprAccess                    0      0.00%    100.00% # attempts to use FU when none available (Count)
system.cpu.statFuBusy::InstPrefetch                 0      0.00%    100.00% # attempts to use FU when none available (Count)
system.cpu.statIssuedInstType_0::No_OpClass            0      0.00%      0.00% # Number of instructions issued per FU type, per thread (Count)
system.cpu.statIssuedInstType_0::IntAlu     154096291     63.17%     63.17% # Number of instructions issued per FU type, per thread (Count)
system.cpu.statIssuedInstType_0::IntMult      1291826      0.53%     63.70% # Number of instructions issued per FU type, per thread (Count)
system.cpu.statIssuedInstType_0::IntDiv             0      0.00%     63.70% # Number of instructions issued per FU type, per thread (Count)
system.cpu.statIssuedInstType_0::FloatAdd            0      0.00%     63.70% # Number of instructions issued per FU type, per thread (Count)
system.cpu.statIssuedInstType_0::FloatCmp            0      0.00%     63.70% # Number of instructions issued per FU type, per thread (Count)
system.cpu.statIssuedInstType_0::FloatCvt            0      0.00%     63.70% # Number of instructions issued per FU type, per thread (Count)
system.cpu.statIssuedInstType_0::FloatMult            0      0.00%     63.70% # Number of instructions issued per FU type, per thread (Count)
system.cpu.statIssuedInstType_0::FloatMultAcc            0      0.00%     63.70% # Number of instructions issued per FU type, per thread (Count)
system.cpu.statIssuedInstType_0::FloatDiv            0      0.00%     63.70% # Number of instructions issued per FU type, per thread (Count)
system.cpu.statIssuedInstType_0::FloatMisc            0      0.00%     63.70% # Number of instructions issued per FU type, per thread (Count)
system.cpu.statIssuedInstType_0::FloatSqrt            0      0.00%     63.70% # Number of instructions issued per FU type, per thread (Count)
system.cpu.statIssuedInstType_0::SimdAdd            0      0.00%     63.70% # Number of instructions issued per FU type, per thread (Count)
system.cpu.statIssuedInstType_0::SimdAddAcc            0      0.00%     63.70% # Number of instructions issued per FU type, per thread (Count)
system.cpu.statIssuedInstType_0::SimdAlu            0      0.00%     63.70% # Number of instructions issued per FU type, per thread (Count)
system.cpu.statIssuedInstType_0::SimdCmp            0      0.00%     63.70% # Number of instructions issued per FU type, per thread (Count)
system.cpu.statIssuedInstType_0::SimdCvt            0      0.00%     63.70% # Number of instructions issued per FU type, per thread (Count)
system.cpu.statIssuedInstType_0::SimdMisc            0      0.00%     63.70% # Number of instructions issued per FU type, per thread (Count)
system.cpu.statIssuedInstType_0::SimdMult            0      0.00%     63.70% # Number of instructions issued per FU type, per thread (Count)
system.cpu.statIssuedInstType_0::SimdMultAcc            0      0.00%     63.70% # Number of instructions issued per FU type, per thread (Count)
system.cpu.statIssuedInstType_0::SimdShift            0      0.00%     63.70% # Number of instructions issued per FU type, per thread (Count)
system.cpu.statIssuedInstType_0::SimdShiftAcc            0      0.00%     63.70% # Number of instructions issued per FU type, per thread (Count)
system.cpu.statIssuedInstType_0::SimdDiv            0      0.00%     63.70% # Number of instructions issued per FU type, per thread (Count)
system.cpu.statIssuedInstType_0::SimdSqrt            0      0.00%     63.70% # Number of instructions issued per FU type, per thread (Count)
system.cpu.statIssuedInstType_0::SimdFloatAdd            0      0.00%     63.70% # Number of instructions issued per FU type, per thread (Count)
system.cpu.statIssuedInstType_0::SimdFloatAlu            0      0.00%     63.70% # Number of instructions issued per FU type, per thread (Count)
system.cpu.statIssuedInstType_0::SimdFloatCmp            0      0.00%     63.70% # Number of instructions issued per FU type, per thread (Count)
system.cpu.statIssuedInstType_0::SimdFloatCvt            0      0.00%     63.70% # Number of instructions issued per FU type, per thread (Count)
system.cpu.statIssuedInstType_0::SimdFloatDiv            0      0.00%     63.70% # Number of instructions issued per FU type, per thread (Count)
system.cpu.statIssuedInstType_0::SimdFloatMisc            0      0.00%     63.70% # Number of instructions issued per FU type, per thread (Count)
system.cpu.statIssuedInstType_0::SimdFloatMult            0      0.00%     63.70% # Number of instructions issued per FU type, per thread (Count)
system.cpu.statIssuedInstType_0::SimdFloatMultAcc            1      0.00%     63.70% # Number of instructions issued per FU type, per thread (Count)
system.cpu.statIssuedInstType_0::SimdFloatSqrt            0      0.00%     63.70% # Number of instructions issued per FU type, per thread (Count)
system.cpu.statIssuedInstType_0::SimdReduceAdd            0      0.00%     63.70% # Number of instructions issued per FU type, per thread (Count)
system.cpu.statIssuedInstType_0::SimdReduceAlu            0      0.00%     63.70% # Number of instructions issued per FU type, per thread (Count)
system.cpu.statIssuedInstType_0::SimdReduceCmp            0      0.00%     63.70% # Number of instructions issued per FU type, per thread (Count)
system.cpu.statIssuedInstType_0::SimdFloatReduceAdd            0      0.00%     63.70% # Number of instructions issued per FU type, per thread (Count)
system.cpu.statIssuedInstType_0::SimdFloatReduceCmp            0      0.00%     63.70% # Number of instructions issued per FU type, per thread (Count)
system.cpu.statIssuedInstType_0::SimdAes            0      0.00%     63.70% # Number of instructions issued per FU type, per thread (Count)
system.cpu.statIssuedInstType_0::SimdAesMix            0      0.00%     63.70% # Number of instructions issued per FU type, per thread (Count)
system.cpu.statIssuedInstType_0::SimdSha1Hash            0      0.00%     63.70% # Number of instructions issued per FU type, per thread (Count)
system.cpu.statIssuedInstType_0::SimdSha1Hash2            0      0.00%     63.70% # Number of instructions issued per FU type, per thread (Count)
system.cpu.statIssuedInstType_0::SimdSha256Hash            0      0.00%     63.70% # Number of instructions issued per FU type, per thread (Count)
system.cpu.statIssuedInstType_0::SimdSha256Hash2            0      0.00%     63.70% # Number of instructions issued per FU type, per thread (Count)
system.cpu.statIssuedInstType_0::SimdShaSigma2            0      0.00%     63.70% # Number of instructions issued per FU type, per thread (Count)
system.cpu.statIssuedInstType_0::SimdShaSigma3            0      0.00%     63.70% # Number of instructions issued per FU type, per thread (Count)
system.cpu.statIssuedInstType_0::SimdPredAlu            0      0.00%     63.70% # Number of instructions issued per FU type, per thread (Count)
system.cpu.statIssuedInstType_0::MemRead     57241824     23.47%     87.17% # Number of instructions issued per FU type, per thread (Count)
system.cpu.statIssuedInstType_0::MemWrite     31301718     12.83%    100.00% # Number of instructions issued per FU type, per thread (Count)
system.cpu.statIssuedInstType_0::FloatMemRead            0      0.00%    100.00% # Number of instructions issued per FU type, per thread (Count)
system.cpu.statIssuedInstType_0::FloatMemWrite            0      0.00%    100.00% # Number of instructions issued per FU type, per thread (Count)
system.cpu.statIssuedInstType_0::IprAccess            0      0.00%    100.00% # Number of instructions issued per FU type, per thread (Count)
system.cpu.statIssuedInstType_0::InstPrefetch            0      0.00%    100.00% # Number of instructions issued per FU type, per thread (Count)
system.cpu.statIssuedInstType_0::total      243931660                       # Number of instructions issued per FU type, per thread (Count)
system.cpu.issueRate                         2.412226                       # Inst issue rate ((Count/Cycle))
system.cpu.fuBusy                             3182153                       # FU busy when requested (Count)
system.cpu.fuBusyRate                        0.013045                       # FU busy rate (busy events/executed inst) ((Count/Count))
system.cpu.intInstQueueReads                592085363                       # Number of integer instruction queue reads (Count)
system.cpu.intInstQueueWrites               292181656                       # Number of integer instruction queue writes (Count)
system.cpu.intInstQueueWakeupAccesses       236839304                       # Number of integer instruction queue wakeup accesses (Count)
system.cpu.fpInstQueueReads                         0                       # Number of floating instruction queue reads (Count)
system.cpu.fpInstQueueWrites                        0                       # Number of floating instruction queue writes (Count)
system.cpu.fpInstQueueWakeupAccesses                0                       # Number of floating instruction queue wakeup accesses (Count)
system.cpu.vecInstQueueReads                        0                       # Number of vector instruction queue reads (Count)
system.cpu.vecInstQueueWrites                       0                       # Number of vector instruction queue writes (Count)
system.cpu.vecInstQueueWakeupAccesses               0                       # Number of vector instruction queue wakeup accesses (Count)
system.cpu.intAluAccesses                   247113813                       # Number of integer alu accesses (Count)
system.cpu.fpAluAccesses                            0                       # Number of floating point alu accesses (Count)
system.cpu.vecAluAccesses                           0                       # Number of vector alu accesses (Count)
system.cpu.numInsts                         241283255                       # Number of executed instructions (Count)
system.cpu.numLoadInsts                      55964604                       # Number of load instructions executed (Count)
system.cpu.numSquashedInsts                   2648403                       # Number of squashed instructions skipped in execute (Count)
system.cpu.numSwp                                   0                       # Number of swp insts executed (Count)
system.cpu.numNop                                   0                       # Number of nop insts executed (Count)
system.cpu.numRefs                           86836079                       # Number of memory reference insts executed (Count)
system.cpu.numBranches                       39072078                       # Number of branches executed (Count)
system.cpu.numStoreInsts                     30871475                       # Number of stores executed (Count)
system.cpu.numRate                           2.386036                       # Inst execution rate ((Count/Cycle))
system.cpu.timesIdled                            2188                       # Number of times that the entire CPU went into an idle state and unscheduled itself (Count)
system.cpu.idleCycles                           84982                       # Total number of cycles that the CPU has spent unscheduled due to idling (Cycle)
system.cpu.committedInsts                   200000006                       # Number of Instructions Simulated (Count)
system.cpu.committedOps                     227162985                       # Number of Ops (including micro ops) Simulated (Count)
system.cpu.cpi                               0.505615                       # CPI: Cycles Per Instruction ((Cycle/Count))
system.cpu.totalCpi                          0.505615                       # CPI: Total CPI of All Threads ((Cycle/Count))
system.cpu.ipc                               1.977788                       # IPC: Instructions Per Cycle ((Count/Cycle))
system.cpu.totalIpc                          1.977788                       # IPC: Total IPC of All Threads ((Count/Cycle))
system.cpu.intRegfileReads                  275837288                       # Number of integer regfile reads (Count)
system.cpu.intRegfileWrites                 140805681                       # Number of integer regfile writes (Count)
system.cpu.vecRegfileReads                         28                       # number of vector regfile reads (Count)
system.cpu.vecRegfileWrites                         4                       # number of vector regfile writes (Count)
system.cpu.ccRegfileReads                   877662478                       # number of cc regfile reads (Count)
system.cpu.ccRegfileWrites                  122087620                       # number of cc regfile writes (Count)
system.cpu.miscRegfileReads                  82145279                       # number of misc regfile reads (Count)
system.cpu.miscRegfileWrites                     1653                       # number of misc regfile writes (Count)
system.cpu.MemDepUnit__0.insertedLoads       56766069                       # Number of loads inserted to the mem dependence unit. (Count)
system.cpu.MemDepUnit__0.insertedStores      32638467                       # Number of stores inserted to the mem dependence unit. (Count)
system.cpu.MemDepUnit__0.conflictingLoads      9852004                       # Number of conflicting loads. (Count)
system.cpu.MemDepUnit__0.conflictingStores      5018491                       # Number of conflicting stores. (Count)
system.cpu.MemDepUnit__1.insertedLoads              0                       # Number of loads inserted to the mem dependence unit. (Count)
system.cpu.MemDepUnit__1.insertedStores             0                       # Number of stores inserted to the mem dependence unit. (Count)
system.cpu.MemDepUnit__1.conflictingLoads            0                       # Number of conflicting loads. (Count)
system.cpu.MemDepUnit__1.conflictingStores            0                       # Number of conflicting stores. (Count)
system.cpu.MemDepUnit__2.insertedLoads              0                       # Number of loads inserted to the mem dependence unit. (Count)
system.cpu.MemDepUnit__2.insertedStores             0                       # Number of stores inserted to the mem dependence unit. (Count)
system.cpu.MemDepUnit__2.conflictingLoads            0                       # Number of conflicting loads. (Count)
system.cpu.MemDepUnit__2.conflictingStores            0                       # Number of conflicting stores. (Count)
system.cpu.MemDepUnit__3.insertedLoads              0                       # Number of loads inserted to the mem dependence unit. (Count)
system.cpu.MemDepUnit__3.insertedStores             0                       # Number of stores inserted to the mem dependence unit. (Count)
system.cpu.MemDepUnit__3.conflictingLoads            0                       # Number of conflicting loads. (Count)
system.cpu.MemDepUnit__3.conflictingStores            0                       # Number of conflicting stores. (Count)
system.cpu.branchPred.lookups                48044243                       # Number of BP lookups (Count)
system.cpu.branchPred.condPredicted          36325187                       # Number of conditional branches predicted (Count)
system.cpu.branchPred.condIncorrect           1520164                       # Number of conditional branches incorrect (Count)
system.cpu.branchPred.BTBLookups             15184930                       # Number of BTB lookups (Count)
system.cpu.branchPred.BTBHits                12997465                       # Number of BTB hits (Count)
system.cpu.branchPred.BTBHitRatio            0.855945                       # BTB Hit Ratio (Ratio)
system.cpu.branchPred.RASUsed                 5064927                       # Number of times the RAS was used to get a target. (Count)
system.cpu.branchPred.RASIncorrect               1384                       # Number of incorrect RAS predictions. (Count)
system.cpu.branchPred.indirectLookups          518979                       # Number of indirect predictor lookups. (Count)
system.cpu.branchPred.indirectHits             515370                       # Number of indirect target hits. (Count)
system.cpu.branchPred.indirectMisses             3609                       # Number of indirect misses. (Count)
system.cpu.branchPred.indirectMispredicted          537                       # Number of mispredicted indirect branches. (Count)
system.cpu.commit.commitSquashedInsts        32484891                       # The number of squashed insts skipped by commit (Count)
system.cpu.commit.commitNonSpecStalls            1035                       # The number of times commit has been forced to stall to communicate backwards (Count)
system.cpu.commit.branchMispredicts           1005495                       # The number of times a branch was mispredicted (Count)
system.cpu.commit.numCommittedDist::samples     96486935                       # Number of insts commited each cycle (Count)
system.cpu.commit.numCommittedDist::mean     2.354339                       # Number of insts commited each cycle (Count)
system.cpu.commit.numCommittedDist::stdev     2.735787                       # Number of insts commited each cycle (Count)
system.cpu.commit.numCommittedDist::underflows            0      0.00%      0.00% # Number of insts commited each cycle (Count)
system.cpu.commit.numCommittedDist::0        26628554     27.60%     27.60% # Number of insts commited each cycle (Count)
system.cpu.commit.numCommittedDist::1        28077867     29.10%     56.70% # Number of insts commited each cycle (Count)
system.cpu.commit.numCommittedDist::2        14760934     15.30%     72.00% # Number of insts commited each cycle (Count)
system.cpu.commit.numCommittedDist::3         3426786      3.55%     75.55% # Number of insts commited each cycle (Count)
system.cpu.commit.numCommittedDist::4         4604588      4.77%     80.32% # Number of insts commited each cycle (Count)
system.cpu.commit.numCommittedDist::5         2168417      2.25%     82.57% # Number of insts commited each cycle (Count)
system.cpu.commit.numCommittedDist::6         1351394      1.40%     83.97% # Number of insts commited each cycle (Count)
system.cpu.commit.numCommittedDist::7         1833069      1.90%     85.87% # Number of insts commited each cycle (Count)
system.cpu.commit.numCommittedDist::8        13635326     14.13%    100.00% # Number of insts commited each cycle (Count)
system.cpu.commit.numCommittedDist::overflows            0      0.00%    100.00% # Number of insts commited each cycle (Count)
system.cpu.commit.numCommittedDist::min_value            0                       # Number of insts commited each cycle (Count)
system.cpu.commit.numCommittedDist::max_value            8                       # Number of insts commited each cycle (Count)
system.cpu.commit.numCommittedDist::total     96486935                       # Number of insts commited each cycle (Count)
system.cpu.commit.instsCommitted            200000006                       # Number of instructions committed (Count)
system.cpu.commit.opsCommitted              227162985                       # Number of ops (including micro ops) committed (Count)
system.cpu.commit.memRefs                    79987457                       # Number of memory references committed (Count)
system.cpu.commit.loads                      49773152                       # Number of loads committed (Count)
system.cpu.commit.amos                              0                       # Number of atomic instructions committed (Count)
system.cpu.commit.membars                         417                       # Number of memory barriers committed (Count)
system.cpu.commit.branches                   37456961                       # Number of branches committed (Count)
system.cpu.commit.vectorInstructions                0                       # Number of committed Vector instructions. (Count)
system.cpu.commit.floating                          0                       # Number of committed floating point instructions. (Count)
system.cpu.commit.integer                   197759243                       # Number of committed integer instructions. (Count)
system.cpu.commit.functionCalls               3769269                       # Number of function calls committed. (Count)
system.cpu.commit.committedInstType_0::No_OpClass            0      0.00%      0.00% # Class of committed instruction (Count)
system.cpu.commit.committedInstType_0::IntAlu    146071351     64.30%     64.30% # Class of committed instruction (Count)
system.cpu.commit.committedInstType_0::IntMult      1104177      0.49%     64.79% # Class of committed instruction (Count)
system.cpu.commit.committedInstType_0::IntDiv            0      0.00%     64.79% # Class of committed instruction (Count)
system.cpu.commit.committedInstType_0::FloatAdd            0      0.00%     64.79% # Class of committed instruction (Count)
system.cpu.commit.committedInstType_0::FloatCmp            0      0.00%     64.79% # Class of committed instruction (Count)
system.cpu.commit.committedInstType_0::FloatCvt            0      0.00%     64.79% # Class of committed instruction (Count)
system.cpu.commit.committedInstType_0::FloatMult            0      0.00%     64.79% # Class of committed instruction (Count)
system.cpu.commit.committedInstType_0::FloatMultAcc            0      0.00%     64.79% # Class of committed instruction (Count)
system.cpu.commit.committedInstType_0::FloatDiv            0      0.00%     64.79% # Class of committed instruction (Count)
system.cpu.commit.committedInstType_0::FloatMisc            0      0.00%     64.79% # Class of committed instruction (Count)
system.cpu.commit.committedInstType_0::FloatSqrt            0      0.00%     64.79% # Class of committed instruction (Count)
system.cpu.commit.committedInstType_0::SimdAdd            0      0.00%     64.79% # Class of committed instruction (Count)
system.cpu.commit.committedInstType_0::SimdAddAcc            0      0.00%     64.79% # Class of committed instruction (Count)
system.cpu.commit.committedInstType_0::SimdAlu            0      0.00%     64.79% # Class of committed instruction (Count)
system.cpu.commit.committedInstType_0::SimdCmp            0      0.00%     64.79% # Class of committed instruction (Count)
system.cpu.commit.committedInstType_0::SimdCvt            0      0.00%     64.79% # Class of committed instruction (Count)
system.cpu.commit.committedInstType_0::SimdMisc            0      0.00%     64.79% # Class of committed instruction (Count)
system.cpu.commit.committedInstType_0::SimdMult            0      0.00%     64.79% # Class of committed instruction (Count)
system.cpu.commit.committedInstType_0::SimdMultAcc            0      0.00%     64.79% # Class of committed instruction (Count)
system.cpu.commit.committedInstType_0::SimdShift            0      0.00%     64.79% # Class of committed instruction (Count)
system.cpu.commit.committedInstType_0::SimdShiftAcc            0      0.00%     64.79% # Class of committed instruction (Count)
system.cpu.commit.committedInstType_0::SimdDiv            0      0.00%     64.79% # Class of committed instruction (Count)
system.cpu.commit.committedInstType_0::SimdSqrt            0      0.00%     64.79% # Class of committed instruction (Count)
system.cpu.commit.committedInstType_0::SimdFloatAdd            0      0.00%     64.79% # Class of committed instruction (Count)
system.cpu.commit.committedInstType_0::SimdFloatAlu            0      0.00%     64.79% # Class of committed instruction (Count)
system.cpu.commit.committedInstType_0::SimdFloatCmp            0      0.00%     64.79% # Class of committed instruction (Count)
system.cpu.commit.committedInstType_0::SimdFloatCvt            0      0.00%     64.79% # Class of committed instruction (Count)
system.cpu.commit.committedInstType_0::SimdFloatDiv            0      0.00%     64.79% # Class of committed instruction (Count)
system.cpu.commit.committedInstType_0::SimdFloatMisc            0      0.00%     64.79% # Class of committed instruction (Count)
system.cpu.commit.committedInstType_0::SimdFloatMult            0      0.00%     64.79% # Class of committed instruction (Count)
system.cpu.commit.committedInstType_0::SimdFloatMultAcc            0      0.00%     64.79% # Class of committed instruction (Count)
system.cpu.commit.committedInstType_0::SimdFloatSqrt            0      0.00%     64.79% # Class of committed instruction (Count)
system.cpu.commit.committedInstType_0::SimdReduceAdd            0      0.00%     64.79% # Class of committed instruction (Count)
system.cpu.commit.committedInstType_0::SimdReduceAlu            0      0.00%     64.79% # Class of committed instruction (Count)
system.cpu.commit.committedInstType_0::SimdReduceCmp            0      0.00%     64.79% # Class of committed instruction (Count)
system.cpu.commit.committedInstType_0::SimdFloatReduceAdd            0      0.00%     64.79% # Class of committed instruction (Count)
system.cpu.commit.committedInstType_0::SimdFloatReduceCmp            0      0.00%     64.79% # Class of committed instruction (Count)
system.cpu.commit.committedInstType_0::SimdAes            0      0.00%     64.79% # Class of committed instruction (Count)
system.cpu.commit.committedInstType_0::SimdAesMix            0      0.00%     64.79% # Class of committed instruction (Count)
system.cpu.commit.committedInstType_0::SimdSha1Hash            0      0.00%     64.79% # Class of committed instruction (Count)
system.cpu.commit.committedInstType_0::SimdSha1Hash2            0      0.00%     64.79% # Class of committed instruction (Count)
system.cpu.commit.committedInstType_0::SimdSha256Hash            0      0.00%     64.79% # Class of committed instruction (Count)
system.cpu.commit.committedInstType_0::SimdSha256Hash2            0      0.00%     64.79% # Class of committed instruction (Count)
system.cpu.commit.committedInstType_0::SimdShaSigma2            0      0.00%     64.79% # Class of committed instruction (Count)
system.cpu.commit.committedInstType_0::SimdShaSigma3            0      0.00%     64.79% # Class of committed instruction (Count)
system.cpu.commit.committedInstType_0::SimdPredAlu            0      0.00%     64.79% # Class of committed instruction (Count)
system.cpu.commit.committedInstType_0::MemRead     49773152     21.91%     86.70% # Class of committed instruction (Count)
system.cpu.commit.committedInstType_0::MemWrite     30214305     13.30%    100.00% # Class of committed instruction (Count)
system.cpu.commit.committedInstType_0::FloatMemRead            0      0.00%    100.00% # Class of committed instruction (Count)
system.cpu.commit.committedInstType_0::FloatMemWrite            0      0.00%    100.00% # Class of committed instruction (Count)
system.cpu.commit.committedInstType_0::IprAccess            0      0.00%    100.00% # Class of committed instruction (Count)
system.cpu.commit.committedInstType_0::InstPrefetch            0      0.00%    100.00% # Class of committed instruction (Count)
system.cpu.commit.committedInstType_0::total    227162985                       # Class of committed instruction (Count)
system.cpu.commit.commitEligibleSamples      13635326                       # number cycles where commit BW limit reached (Cycle)
system.cpu.dcache.demandHits::cpu.data       74894705                       # number of demand (read+write) hits (Count)
system.cpu.dcache.demandHits::total          74894705                       # number of demand (read+write) hits (Count)
system.cpu.dcache.overallHits::cpu.data      74894705                       # number of overall hits (Count)
system.cpu.dcache.overallHits::total         74894705                       # number of overall hits (Count)
system.cpu.dcache.demandMisses::cpu.data       396046                       # number of demand (read+write) misses (Count)
system.cpu.dcache.demandMisses::total          396046                       # number of demand (read+write) misses (Count)
system.cpu.dcache.overallMisses::cpu.data       396046                       # number of overall misses (Count)
system.cpu.dcache.overallMisses::total         396046                       # number of overall misses (Count)
system.cpu.dcache.demandMissLatency::cpu.data  28580720479                       # number of demand (read+write) miss ticks (Tick)
system.cpu.dcache.demandMissLatency::total  28580720479                       # number of demand (read+write) miss ticks (Tick)
system.cpu.dcache.overallMissLatency::cpu.data  28580720479                       # number of overall miss ticks (Tick)
system.cpu.dcache.overallMissLatency::total  28580720479                       # number of overall miss ticks (Tick)
system.cpu.dcache.demandAccesses::cpu.data     75290751                       # number of demand (read+write) accesses (Count)
system.cpu.dcache.demandAccesses::total      75290751                       # number of demand (read+write) accesses (Count)
system.cpu.dcache.overallAccesses::cpu.data     75290751                       # number of overall (read+write) accesses (Count)
system.cpu.dcache.overallAccesses::total     75290751                       # number of overall (read+write) accesses (Count)
system.cpu.dcache.demandMissRate::cpu.data     0.005260                       # miss rate for demand accesses (Ratio)
system.cpu.dcache.demandMissRate::total      0.005260                       # miss rate for demand accesses (Ratio)
system.cpu.dcache.overallMissRate::cpu.data     0.005260                       # miss rate for overall accesses (Ratio)
system.cpu.dcache.overallMissRate::total     0.005260                       # miss rate for overall accesses (Ratio)
system.cpu.dcache.demandAvgMissLatency::cpu.data 72165.153742                       # average overall miss latency in ticks ((Tick/Count))
system.cpu.dcache.demandAvgMissLatency::total 72165.153742                       # average overall miss latency in ticks ((Tick/Count))
system.cpu.dcache.overallAvgMissLatency::cpu.data 72165.153742                       # average overall miss latency ((Tick/Count))
system.cpu.dcache.overallAvgMissLatency::total 72165.153742                       # average overall miss latency ((Tick/Count))
system.cpu.dcache.blockedCycles::no_mshrs         2929                       # number of cycles access was blocked (Cycle)
system.cpu.dcache.blockedCycles::no_targets          430                       # number of cycles access was blocked (Cycle)
system.cpu.dcache.blockedCauses::no_mshrs           84                       # number of times access was blocked (Count)
system.cpu.dcache.blockedCauses::no_targets            6                       # number of times access was blocked (Count)
system.cpu.dcache.avgBlocked::no_mshrs      34.869048                       # average number of cycles each access was blocked ((Cycle/Count))
system.cpu.dcache.avgBlocked::no_targets    71.666667                       # average number of cycles each access was blocked ((Cycle/Count))
system.cpu.dcache.writebacks::writebacks        31699                       # number of writebacks (Count)
system.cpu.dcache.writebacks::total             31699                       # number of writebacks (Count)
system.cpu.dcache.demandMshrHits::cpu.data       343483                       # number of demand (read+write) MSHR hits (Count)
system.cpu.dcache.demandMshrHits::total        343483                       # number of demand (read+write) MSHR hits (Count)
system.cpu.dcache.overallMshrHits::cpu.data       343483                       # number of overall MSHR hits (Count)
system.cpu.dcache.overallMshrHits::total       343483                       # number of overall MSHR hits (Count)
system.cpu.dcache.demandMshrMisses::cpu.data        52563                       # number of demand (read+write) MSHR misses (Count)
system.cpu.dcache.demandMshrMisses::total        52563                       # number of demand (read+write) MSHR misses (Count)
system.cpu.dcache.overallMshrMisses::cpu.data        52563                       # number of overall MSHR misses (Count)
system.cpu.dcache.overallMshrMisses::total        52563                       # number of overall MSHR misses (Count)
system.cpu.dcache.demandMshrMissLatency::cpu.data   3833406993                       # number of demand (read+write) MSHR miss ticks (Tick)
system.cpu.dcache.demandMshrMissLatency::total   3833406993                       # number of demand (read+write) MSHR miss ticks (Tick)
system.cpu.dcache.overallMshrMissLatency::cpu.data   3833406993                       # number of overall MSHR miss ticks (Tick)
system.cpu.dcache.overallMshrMissLatency::total   3833406993                       # number of overall MSHR miss ticks (Tick)
system.cpu.dcache.demandMshrMissRate::cpu.data     0.000698                       # mshr miss ratio for demand accesses (Ratio)
system.cpu.dcache.demandMshrMissRate::total     0.000698                       # mshr miss ratio for demand accesses (Ratio)
system.cpu.dcache.overallMshrMissRate::cpu.data     0.000698                       # mshr miss ratio for overall accesses (Ratio)
system.cpu.dcache.overallMshrMissRate::total     0.000698                       # mshr miss ratio for overall accesses (Ratio)
system.cpu.dcache.demandAvgMshrMissLatency::cpu.data 72929.760345                       # average overall mshr miss latency ((Tick/Count))
system.cpu.dcache.demandAvgMshrMissLatency::total 72929.760345                       # average overall mshr miss latency ((Tick/Count))
system.cpu.dcache.overallAvgMshrMissLatency::cpu.data 72929.760345                       # average overall mshr miss latency ((Tick/Count))
system.cpu.dcache.overallAvgMshrMissLatency::total 72929.760345                       # average overall mshr miss latency ((Tick/Count))
system.cpu.dcache.replacements                  52048                       # number of replacements (Count)
system.cpu.dcache.LoadLockedReq.hits::cpu.data          417                       # number of LoadLockedReq hits (Count)
system.cpu.dcache.LoadLockedReq.hits::total          417                       # number of LoadLockedReq hits (Count)
system.cpu.dcache.LoadLockedReq.misses::cpu.data           14                       # number of LoadLockedReq misses (Count)
system.cpu.dcache.LoadLockedReq.misses::total           14                       # number of LoadLockedReq misses (Count)
system.cpu.dcache.LoadLockedReq.missLatency::cpu.data       531500                       # number of LoadLockedReq miss ticks (Tick)
system.cpu.dcache.LoadLockedReq.missLatency::total       531500                       # number of LoadLockedReq miss ticks (Tick)
system.cpu.dcache.LoadLockedReq.accesses::cpu.data          431                       # number of LoadLockedReq accesses(hits+misses) (Count)
system.cpu.dcache.LoadLockedReq.accesses::total          431                       # number of LoadLockedReq accesses(hits+misses) (Count)
system.cpu.dcache.LoadLockedReq.missRate::cpu.data     0.032483                       # miss rate for LoadLockedReq accesses (Ratio)
system.cpu.dcache.LoadLockedReq.missRate::total     0.032483                       # miss rate for LoadLockedReq accesses (Ratio)
system.cpu.dcache.LoadLockedReq.avgMissLatency::cpu.data 37964.285714                       # average LoadLockedReq miss latency ((Tick/Count))
system.cpu.dcache.LoadLockedReq.avgMissLatency::total 37964.285714                       # average LoadLockedReq miss latency ((Tick/Count))
system.cpu.dcache.LoadLockedReq.mshrHits::cpu.data           14                       # number of LoadLockedReq MSHR hits (Count)
system.cpu.dcache.LoadLockedReq.mshrHits::total           14                       # number of LoadLockedReq MSHR hits (Count)
system.cpu.dcache.ReadReq.hits::cpu.data     45566790                       # number of ReadReq hits (Count)
system.cpu.dcache.ReadReq.hits::total        45566790                       # number of ReadReq hits (Count)
system.cpu.dcache.ReadReq.misses::cpu.data       110107                       # number of ReadReq misses (Count)
system.cpu.dcache.ReadReq.misses::total        110107                       # number of ReadReq misses (Count)
system.cpu.dcache.ReadReq.missLatency::cpu.data   4942476000                       # number of ReadReq miss ticks (Tick)
system.cpu.dcache.ReadReq.missLatency::total   4942476000                       # number of ReadReq miss ticks (Tick)
system.cpu.dcache.ReadReq.accesses::cpu.data     45676897                       # number of ReadReq accesses(hits+misses) (Count)
system.cpu.dcache.ReadReq.accesses::total     45676897                       # number of ReadReq accesses(hits+misses) (Count)
system.cpu.dcache.ReadReq.missRate::cpu.data     0.002411                       # miss rate for ReadReq accesses (Ratio)
system.cpu.dcache.ReadReq.missRate::total     0.002411                       # miss rate for ReadReq accesses (Ratio)
system.cpu.dcache.ReadReq.avgMissLatency::cpu.data 44887.936280                       # average ReadReq miss latency ((Tick/Count))
system.cpu.dcache.ReadReq.avgMissLatency::total 44887.936280                       # average ReadReq miss latency ((Tick/Count))
system.cpu.dcache.ReadReq.mshrHits::cpu.data        85313                       # number of ReadReq MSHR hits (Count)
system.cpu.dcache.ReadReq.mshrHits::total        85313                       # number of ReadReq MSHR hits (Count)
system.cpu.dcache.ReadReq.mshrMisses::cpu.data        24794                       # number of ReadReq MSHR misses (Count)
system.cpu.dcache.ReadReq.mshrMisses::total        24794                       # number of ReadReq MSHR misses (Count)
system.cpu.dcache.ReadReq.mshrMissLatency::cpu.data   1329545500                       # number of ReadReq MSHR miss ticks (Tick)
system.cpu.dcache.ReadReq.mshrMissLatency::total   1329545500                       # number of ReadReq MSHR miss ticks (Tick)
system.cpu.dcache.ReadReq.mshrMissRate::cpu.data     0.000543                       # mshr miss rate for ReadReq accesses (Ratio)
system.cpu.dcache.ReadReq.mshrMissRate::total     0.000543                       # mshr miss rate for ReadReq accesses (Ratio)
system.cpu.dcache.ReadReq.avgMshrMissLatency::cpu.data 53623.679116                       # average ReadReq mshr miss latency ((Tick/Count))
system.cpu.dcache.ReadReq.avgMshrMissLatency::total 53623.679116                       # average ReadReq mshr miss latency ((Tick/Count))
system.cpu.dcache.StoreCondReq.hits::cpu.data          413                       # number of StoreCondReq hits (Count)
system.cpu.dcache.StoreCondReq.hits::total          413                       # number of StoreCondReq hits (Count)
system.cpu.dcache.StoreCondReq.accesses::cpu.data          413                       # number of StoreCondReq accesses(hits+misses) (Count)
system.cpu.dcache.StoreCondReq.accesses::total          413                       # number of StoreCondReq accesses(hits+misses) (Count)
system.cpu.dcache.WriteReq.hits::cpu.data     29327915                       # number of WriteReq hits (Count)
system.cpu.dcache.WriteReq.hits::total       29327915                       # number of WriteReq hits (Count)
system.cpu.dcache.WriteReq.misses::cpu.data       285939                       # number of WriteReq misses (Count)
system.cpu.dcache.WriteReq.misses::total       285939                       # number of WriteReq misses (Count)
system.cpu.dcache.WriteReq.missLatency::cpu.data  23638244479                       # number of WriteReq miss ticks (Tick)
system.cpu.dcache.WriteReq.missLatency::total  23638244479                       # number of WriteReq miss ticks (Tick)
system.cpu.dcache.WriteReq.accesses::cpu.data     29613854                       # number of WriteReq accesses(hits+misses) (Count)
system.cpu.dcache.WriteReq.accesses::total     29613854                       # number of WriteReq accesses(hits+misses) (Count)
system.cpu.dcache.WriteReq.missRate::cpu.data     0.009656                       # miss rate for WriteReq accesses (Ratio)
system.cpu.dcache.WriteReq.missRate::total     0.009656                       # miss rate for WriteReq accesses (Ratio)
system.cpu.dcache.WriteReq.avgMissLatency::cpu.data 82668.836636                       # average WriteReq miss latency ((Tick/Count))
system.cpu.dcache.WriteReq.avgMissLatency::total 82668.836636                       # average WriteReq miss latency ((Tick/Count))
system.cpu.dcache.WriteReq.mshrHits::cpu.data       258170                       # number of WriteReq MSHR hits (Count)
system.cpu.dcache.WriteReq.mshrHits::total       258170                       # number of WriteReq MSHR hits (Count)
system.cpu.dcache.WriteReq.mshrMisses::cpu.data        27769                       # number of WriteReq MSHR misses (Count)
system.cpu.dcache.WriteReq.mshrMisses::total        27769                       # number of WriteReq MSHR misses (Count)
system.cpu.dcache.WriteReq.mshrMissLatency::cpu.data   2503861493                       # number of WriteReq MSHR miss ticks (Tick)
system.cpu.dcache.WriteReq.mshrMissLatency::total   2503861493                       # number of WriteReq MSHR miss ticks (Tick)
system.cpu.dcache.WriteReq.mshrMissRate::cpu.data     0.000938                       # mshr miss rate for WriteReq accesses (Ratio)
system.cpu.dcache.WriteReq.mshrMissRate::total     0.000938                       # mshr miss rate for WriteReq accesses (Ratio)
system.cpu.dcache.WriteReq.avgMshrMissLatency::cpu.data 90167.506680                       # average WriteReq mshr miss latency ((Tick/Count))
system.cpu.dcache.WriteReq.avgMshrMissLatency::total 90167.506680                       # average WriteReq mshr miss latency ((Tick/Count))
system.cpu.dcache.power_state.pwrStateResidencyTicks::UNDEFINED  50561530500                       # Cumulative time (in ticks) in various power states (Tick)
system.cpu.dcache.tags.tagsInUse           511.062079                       # Average ticks per tags in use ((Tick/Count))
system.cpu.dcache.tags.totalRefs             74948105                       # Total number of references to valid blocks. (Count)
system.cpu.dcache.tags.sampledRefs              52560                       # Sample count of references to valid blocks. (Count)
system.cpu.dcache.tags.avgRefs            1425.953291                       # Average number of references to valid blocks. ((Count/Count))
system.cpu.dcache.tags.warmupTick              148500                       # The tick when the warmup percentage was hit. (Tick)
system.cpu.dcache.tags.occupancies::cpu.data   511.062079                       # Average occupied blocks per tick, per requestor ((Count/Tick))
system.cpu.dcache.tags.avgOccs::cpu.data     0.998168                       # Average percentage of cache occupancy ((Ratio/Tick))
system.cpu.dcache.tags.avgOccs::total        0.998168                       # Average percentage of cache occupancy ((Ratio/Tick))
system.cpu.dcache.tags.occupanciesTaskId::1024          512                       # Occupied blocks per task id (Count)
system.cpu.dcache.tags.ageTaskId_1024::0            2                       # Occupied blocks per task id, per block age (Count)
system.cpu.dcache.tags.ageTaskId_1024::1           19                       # Occupied blocks per task id, per block age (Count)
system.cpu.dcache.tags.ageTaskId_1024::2          199                       # Occupied blocks per task id, per block age (Count)
system.cpu.dcache.tags.ageTaskId_1024::3          164                       # Occupied blocks per task id, per block age (Count)
system.cpu.dcache.tags.ageTaskId_1024::4          128                       # Occupied blocks per task id, per block age (Count)
system.cpu.dcache.tags.ratioOccsTaskId::1024            1                       # Ratio of occupied blocks and all blocks, per task id (Ratio)
system.cpu.dcache.tags.tagAccesses          150635750                       # Number of tag accesses (Count)
system.cpu.dcache.tags.dataAccesses         150635750                       # Number of data accesses (Count)
system.cpu.dcache.tags.power_state.pwrStateResidencyTicks::UNDEFINED  50561530500                       # Cumulative time (in ticks) in various power states (Tick)
system.cpu.decode.idleCycles                 34762455                       # Number of cycles decode is idle (Cycle)
system.cpu.decode.blockedCycles              19685372                       # Number of cycles decode is blocked (Cycle)
system.cpu.decode.runCycles                  40604791                       # Number of cycles decode is running (Cycle)
system.cpu.decode.unblockCycles               4975854                       # Number of cycles decode is unblocking (Cycle)
system.cpu.decode.squashCycles                1009608                       # Number of cycles decode is squashing (Cycle)
system.cpu.decode.branchResolved             13042506                       # Number of times decode resolved a branch (Count)
system.cpu.decode.branchMispred                514897                       # Number of times decode detected a branch misprediction (Count)
system.cpu.decode.decodedInsts              268619110                       # Number of instructions handled by decode (Count)
system.cpu.decode.squashedInsts                  5273                       # Number of squashed instructions handled by decode (Count)
system.cpu.fetch.icacheStallCycles           43661852                       # Number of cycles fetch is stalled on an Icache miss (Cycle)
system.cpu.fetch.insts                      250350613                       # Number of instructions fetch has processed (Count)
system.cpu.fetch.branches                    48044243                       # Number of branches that fetch encountered (Count)
system.cpu.fetch.predictedBranches           18577762                       # Number of branches that fetch has predicted taken (Count)
system.cpu.fetch.cycles                      55851739                       # Number of cycles fetch has run and was not squashing or blocked (Cycle)
system.cpu.fetch.squashCycles                 3048554                       # Number of cycles fetch has spent squashing (Cycle)
system.cpu.fetch.miscStallCycles                  118                       # Number of cycles fetch has spent waiting on interrupts, or bad addresses, or out of MSHRs (Cycle)
system.cpu.fetch.pendingTrapStallCycles            20                       # Number of stall cycles due to pending traps (Cycle)
system.cpu.fetch.icacheWaitRetryStallCycles           74                       # Number of stall cycles due to full MSHR (Cycle)
system.cpu.fetch.cacheLines                  36500440                       # Number of cache lines fetched (Count)
system.cpu.fetch.icacheSquashes                562071                       # Number of outstanding Icache misses that were squashed (Count)
system.cpu.fetch.nisnDist::samples          101038080                       # Number of instructions fetched each cycle (Total) (Count)
system.cpu.fetch.nisnDist::mean              2.802718                       # Number of instructions fetched each cycle (Total) (Count)
system.cpu.fetch.nisnDist::stdev             3.387613                       # Number of instructions fetched each cycle (Total) (Count)
system.cpu.fetch.nisnDist::underflows               0      0.00%      0.00% # Number of instructions fetched each cycle (Total) (Count)
system.cpu.fetch.nisnDist::0                 50855027     50.33%     50.33% # Number of instructions fetched each cycle (Total) (Count)
system.cpu.fetch.nisnDist::1                  5339707      5.28%     55.62% # Number of instructions fetched each cycle (Total) (Count)
system.cpu.fetch.nisnDist::2                  5536739      5.48%     61.10% # Number of instructions fetched each cycle (Total) (Count)
system.cpu.fetch.nisnDist::3                  1823650      1.80%     62.90% # Number of instructions fetched each cycle (Total) (Count)
system.cpu.fetch.nisnDist::4                  4841325      4.79%     67.69% # Number of instructions fetched each cycle (Total) (Count)
system.cpu.fetch.nisnDist::5                  4489295      4.44%     72.14% # Number of instructions fetched each cycle (Total) (Count)
system.cpu.fetch.nisnDist::6                  1920064      1.90%     74.04% # Number of instructions fetched each cycle (Total) (Count)
system.cpu.fetch.nisnDist::7                  1893249      1.87%     75.91% # Number of instructions fetched each cycle (Total) (Count)
system.cpu.fetch.nisnDist::8                 24339024     24.09%    100.00% # Number of instructions fetched each cycle (Total) (Count)
system.cpu.fetch.nisnDist::overflows                0      0.00%    100.00% # Number of instructions fetched each cycle (Total) (Count)
system.cpu.fetch.nisnDist::min_value                0                       # Number of instructions fetched each cycle (Total) (Count)
system.cpu.fetch.nisnDist::max_value                8                       # Number of instructions fetched each cycle (Total) (Count)
system.cpu.fetch.nisnDist::total            101038080                       # Number of instructions fetched each cycle (Total) (Count)
system.cpu.fetch.branchRate                  0.475107                       # Number of branch fetches per cycle (Ratio)
system.cpu.fetch.rate                        2.475702                       # Number of inst fetches per cycle ((Count/Cycle))
system.cpu.icache.demandHits::cpu.inst       36239580                       # number of demand (read+write) hits (Count)
system.cpu.icache.demandHits::total          36239580                       # number of demand (read+write) hits (Count)
system.cpu.icache.overallHits::cpu.inst      36239580                       # number of overall hits (Count)
system.cpu.icache.overallHits::total         36239580                       # number of overall hits (Count)
system.cpu.icache.demandMisses::cpu.inst       260858                       # number of demand (read+write) misses (Count)
system.cpu.icache.demandMisses::total          260858                       # number of demand (read+write) misses (Count)
system.cpu.icache.overallMisses::cpu.inst       260858                       # number of overall misses (Count)
system.cpu.icache.overallMisses::total         260858                       # number of overall misses (Count)
system.cpu.icache.demandMissLatency::cpu.inst   3571555998                       # number of demand (read+write) miss ticks (Tick)
system.cpu.icache.demandMissLatency::total   3571555998                       # number of demand (read+write) miss ticks (Tick)
system.cpu.icache.overallMissLatency::cpu.inst   3571555998                       # number of overall miss ticks (Tick)
system.cpu.icache.overallMissLatency::total   3571555998                       # number of overall miss ticks (Tick)
system.cpu.icache.demandAccesses::cpu.inst     36500438                       # number of demand (read+write) accesses (Count)
system.cpu.icache.demandAccesses::total      36500438                       # number of demand (read+write) accesses (Count)
system.cpu.icache.overallAccesses::cpu.inst     36500438                       # number of overall (read+write) accesses (Count)
system.cpu.icache.overallAccesses::total     36500438                       # number of overall (read+write) accesses (Count)
system.cpu.icache.demandMissRate::cpu.inst     0.007147                       # miss rate for demand accesses (Ratio)
system.cpu.icache.demandMissRate::total      0.007147                       # miss rate for demand accesses (Ratio)
system.cpu.icache.overallMissRate::cpu.inst     0.007147                       # miss rate for overall accesses (Ratio)
system.cpu.icache.overallMissRate::total     0.007147                       # miss rate for overall accesses (Ratio)
system.cpu.icache.demandAvgMissLatency::cpu.inst 13691.571652                       # average overall miss latency in ticks ((Tick/Count))
system.cpu.icache.demandAvgMissLatency::total 13691.571652                       # average overall miss latency in ticks ((Tick/Count))
system.cpu.icache.overallAvgMissLatency::cpu.inst 13691.571652                       # average overall miss latency ((Tick/Count))
system.cpu.icache.overallAvgMissLatency::total 13691.571652                       # average overall miss latency ((Tick/Count))
system.cpu.icache.blockedCycles::no_mshrs         1146                       # number of cycles access was blocked (Cycle)
system.cpu.icache.blockedCycles::no_targets            0                       # number of cycles access was blocked (Cycle)
system.cpu.icache.blockedCauses::no_mshrs           23                       # number of times access was blocked (Count)
system.cpu.icache.blockedCauses::no_targets            0                       # number of times access was blocked (Count)
system.cpu.icache.avgBlocked::no_mshrs      49.826087                       # average number of cycles each access was blocked ((Cycle/Count))
system.cpu.icache.avgBlocked::no_targets          nan                       # average number of cycles each access was blocked ((Cycle/Count))
system.cpu.icache.writebacks::writebacks            1                       # number of writebacks (Count)
system.cpu.icache.writebacks::total                 1                       # number of writebacks (Count)
system.cpu.icache.demandMshrHits::cpu.inst         1156                       # number of demand (read+write) MSHR hits (Count)
system.cpu.icache.demandMshrHits::total          1156                       # number of demand (read+write) MSHR hits (Count)
system.cpu.icache.overallMshrHits::cpu.inst         1156                       # number of overall MSHR hits (Count)
system.cpu.icache.overallMshrHits::total         1156                       # number of overall MSHR hits (Count)
system.cpu.icache.demandMshrMisses::cpu.inst       259702                       # number of demand (read+write) MSHR misses (Count)
system.cpu.icache.demandMshrMisses::total       259702                       # number of demand (read+write) MSHR misses (Count)
system.cpu.icache.overallMshrMisses::cpu.inst       259702                       # number of overall MSHR misses (Count)
system.cpu.icache.overallMshrMisses::total       259702                       # number of overall MSHR misses (Count)
system.cpu.icache.demandMshrMissLatency::cpu.inst   3282305498                       # number of demand (read+write) MSHR miss ticks (Tick)
system.cpu.icache.demandMshrMissLatency::total   3282305498                       # number of demand (read+write) MSHR miss ticks (Tick)
system.cpu.icache.overallMshrMissLatency::cpu.inst   3282305498                       # number of overall MSHR miss ticks (Tick)
system.cpu.icache.overallMshrMissLatency::total   3282305498                       # number of overall MSHR miss ticks (Tick)
system.cpu.icache.demandMshrMissRate::cpu.inst     0.007115                       # mshr miss ratio for demand accesses (Ratio)
system.cpu.icache.demandMshrMissRate::total     0.007115                       # mshr miss ratio for demand accesses (Ratio)
system.cpu.icache.overallMshrMissRate::cpu.inst     0.007115                       # mshr miss ratio for overall accesses (Ratio)
system.cpu.icache.overallMshrMissRate::total     0.007115                       # mshr miss ratio for overall accesses (Ratio)
system.cpu.icache.demandAvgMshrMissLatency::cpu.inst 12638.737853                       # average overall mshr miss latency ((Tick/Count))
system.cpu.icache.demandAvgMshrMissLatency::total 12638.737853                       # average overall mshr miss latency ((Tick/Count))
system.cpu.icache.overallAvgMshrMissLatency::cpu.inst 12638.737853                       # average overall mshr miss latency ((Tick/Count))
system.cpu.icache.overallAvgMshrMissLatency::total 12638.737853                       # average overall mshr miss latency ((Tick/Count))
system.cpu.icache.replacements                 259193                       # number of replacements (Count)
system.cpu.icache.ReadReq.hits::cpu.inst     36239580                       # number of ReadReq hits (Count)
system.cpu.icache.ReadReq.hits::total        36239580                       # number of ReadReq hits (Count)
system.cpu.icache.ReadReq.misses::cpu.inst       260858                       # number of ReadReq misses (Count)
system.cpu.icache.ReadReq.misses::total        260858                       # number of ReadReq misses (Count)
system.cpu.icache.ReadReq.missLatency::cpu.inst   3571555998                       # number of ReadReq miss ticks (Tick)
system.cpu.icache.ReadReq.missLatency::total   3571555998                       # number of ReadReq miss ticks (Tick)
system.cpu.icache.ReadReq.accesses::cpu.inst     36500438                       # number of ReadReq accesses(hits+misses) (Count)
system.cpu.icache.ReadReq.accesses::total     36500438                       # number of ReadReq accesses(hits+misses) (Count)
system.cpu.icache.ReadReq.missRate::cpu.inst     0.007147                       # miss rate for ReadReq accesses (Ratio)
system.cpu.icache.ReadReq.missRate::total     0.007147                       # miss rate for ReadReq accesses (Ratio)
system.cpu.icache.ReadReq.avgMissLatency::cpu.inst 13691.571652                       # average ReadReq miss latency ((Tick/Count))
system.cpu.icache.ReadReq.avgMissLatency::total 13691.571652                       # average ReadReq miss latency ((Tick/Count))
system.cpu.icache.ReadReq.mshrHits::cpu.inst         1156                       # number of ReadReq MSHR hits (Count)
system.cpu.icache.ReadReq.mshrHits::total         1156                       # number of ReadReq MSHR hits (Count)
system.cpu.icache.ReadReq.mshrMisses::cpu.inst       259702                       # number of ReadReq MSHR misses (Count)
system.cpu.icache.ReadReq.mshrMisses::total       259702                       # number of ReadReq MSHR misses (Count)
system.cpu.icache.ReadReq.mshrMissLatency::cpu.inst   3282305498                       # number of ReadReq MSHR miss ticks (Tick)
system.cpu.icache.ReadReq.mshrMissLatency::total   3282305498                       # number of ReadReq MSHR miss ticks (Tick)
system.cpu.icache.ReadReq.mshrMissRate::cpu.inst     0.007115                       # mshr miss rate for ReadReq accesses (Ratio)
system.cpu.icache.ReadReq.mshrMissRate::total     0.007115                       # mshr miss rate for ReadReq accesses (Ratio)
system.cpu.icache.ReadReq.avgMshrMissLatency::cpu.inst 12638.737853                       # average ReadReq mshr miss latency ((Tick/Count))
system.cpu.icache.ReadReq.avgMshrMissLatency::total 12638.737853                       # average ReadReq mshr miss latency ((Tick/Count))
system.cpu.icache.power_state.pwrStateResidencyTicks::UNDEFINED  50561530500                       # Cumulative time (in ticks) in various power states (Tick)
system.cpu.icache.tags.tagsInUse           506.646121                       # Average ticks per tags in use ((Tick/Count))
system.cpu.icache.tags.totalRefs             36499282                       # Total number of references to valid blocks. (Count)
system.cpu.icache.tags.sampledRefs             259702                       # Sample count of references to valid blocks. (Count)
system.cpu.icache.tags.avgRefs             140.542938                       # Average number of references to valid blocks. ((Count/Count))
system.cpu.icache.tags.warmupTick               81500                       # The tick when the warmup percentage was hit. (Tick)
system.cpu.icache.tags.occupancies::cpu.inst   506.646121                       # Average occupied blocks per tick, per requestor ((Count/Tick))
system.cpu.icache.tags.avgOccs::cpu.inst     0.989543                       # Average percentage of cache occupancy ((Ratio/Tick))
system.cpu.icache.tags.avgOccs::total        0.989543                       # Average percentage of cache occupancy ((Ratio/Tick))
system.cpu.icache.tags.occupanciesTaskId::1024          507                       # Occupied blocks per task id (Count)
system.cpu.icache.tags.ageTaskId_1024::0            2                       # Occupied blocks per task id, per block age (Count)
system.cpu.icache.tags.ageTaskId_1024::1            7                       # Occupied blocks per task id, per block age (Count)
system.cpu.icache.tags.ageTaskId_1024::2            1                       # Occupied blocks per task id, per block age (Count)
system.cpu.icache.tags.ageTaskId_1024::3            2                       # Occupied blocks per task id, per block age (Count)
system.cpu.icache.tags.ageTaskId_1024::4          495                       # Occupied blocks per task id, per block age (Count)
system.cpu.icache.tags.ratioOccsTaskId::1024     0.990234                       # Ratio of occupied blocks and all blocks, per task id (Ratio)
system.cpu.icache.tags.tagAccesses           73260578                       # Number of tag accesses (Count)
system.cpu.icache.tags.dataAccesses          73260578                       # Number of data accesses (Count)
system.cpu.icache.tags.power_state.pwrStateResidencyTicks::UNDEFINED  50561530500                       # Cumulative time (in ticks) in various power states (Tick)
system.cpu.iew.idleCycles                           0                       # Number of cycles IEW is idle (Cycle)
system.cpu.iew.squashCycles                   1009608                       # Number of cycles IEW is squashing (Cycle)
system.cpu.iew.blockCycles                    3586687                       # Number of cycles IEW is blocking (Cycle)
system.cpu.iew.unblockCycles                    30661                       # Number of cycles IEW is unblocking (Cycle)
system.cpu.iew.dispatchedInsts              259670105                       # Number of instructions dispatched to IQ (Count)
system.cpu.iew.dispSquashedInsts                 3188                       # Number of squashed instructions skipped by dispatch (Count)
system.cpu.iew.dispLoadInsts                 56766069                       # Number of dispatched load instructions (Count)
system.cpu.iew.dispStoreInsts                32638467                       # Number of dispatched store instructions (Count)
system.cpu.iew.dispNonSpecInsts                   718                       # Number of dispatched non-speculative instructions (Count)
system.cpu.iew.iqFullEvents                      3438                       # Number of times the IQ has become full, causing a stall (Count)
system.cpu.iew.lsqFullEvents                    27111                       # Number of times the LSQ has become full, causing a stall (Count)
system.cpu.iew.memOrderViolationEvents           4543                       # Number of memory order violations (Count)
system.cpu.iew.predictedTakenIncorrect          60595                       # Number of branches that were predicted taken incorrectly (Count)
system.cpu.iew.predictedNotTakenIncorrect      1118153                       # Number of branches that were predicted not taken incorrectly (Count)
system.cpu.iew.branchMispredicts              1178748                       # Number of branch mispredicts detected at execute (Count)
system.cpu.iew.instsToCommit                237105689                       # Cumulative count of insts sent to commit (Count)
system.cpu.iew.writebackCount               236839304                       # Cumulative count of insts written-back (Count)
system.cpu.iew.producerInst                 143325494                       # Number of instructions producing a value (Count)
system.cpu.iew.consumerInst                 252345315                       # Number of instructions consuming a value (Count)
system.cpu.iew.wbRate                        2.342090                       # Insts written-back per cycle ((Count/Cycle))
system.cpu.iew.wbFanout                      0.567974                       # Average fanout of values written-back ((Count/Count))
system.cpu.lsq0.forwLoads                     6135815                       # Number of loads that had data forwarded from stores (Count)
system.cpu.lsq0.squashedLoads                 6992917                       # Number of loads squashed (Count)
system.cpu.lsq0.ignoredResponses                16429                       # Number of memory responses ignored because the instruction is squashed (Count)
system.cpu.lsq0.memOrderViolation                4543                       # Number of memory ordering violations (Count)
system.cpu.lsq0.squashedStores                2424162                       # Number of stores squashed (Count)
system.cpu.lsq0.rescheduledLoads              3891503                       # Number of loads that were rescheduled (Count)
system.cpu.lsq0.blockedByCache                     69                       # Number of times an access to memory failed due to the cache being blocked (Count)
system.cpu.lsq0.loadToUse::samples           49773152                       # Distribution of cycle latency between the first time a load is issued and its completion (Unspecified)
system.cpu.lsq0.loadToUse::mean              3.939614                       # Distribution of cycle latency between the first time a load is issued and its completion (Unspecified)
system.cpu.lsq0.loadToUse::stdev             6.714691                       # Distribution of cycle latency between the first time a load is issued and its completion (Unspecified)
system.cpu.lsq0.loadToUse::0-9               47969123     96.38%     96.38% # Distribution of cycle latency between the first time a load is issued and its completion (Unspecified)
system.cpu.lsq0.loadToUse::10-19              1047227      2.10%     98.48% # Distribution of cycle latency between the first time a load is issued and its completion (Unspecified)
system.cpu.lsq0.loadToUse::20-29               601340      1.21%     99.69% # Distribution of cycle latency between the first time a load is issued and its completion (Unspecified)
system.cpu.lsq0.loadToUse::30-39                89204      0.18%     99.87% # Distribution of cycle latency between the first time a load is issued and its completion (Unspecified)
system.cpu.lsq0.loadToUse::40-49                 4511      0.01%     99.88% # Distribution of cycle latency between the first time a load is issued and its completion (Unspecified)
system.cpu.lsq0.loadToUse::50-59                 2568      0.01%     99.88% # Distribution of cycle latency between the first time a load is issued and its completion (Unspecified)
system.cpu.lsq0.loadToUse::60-69                 5417      0.01%     99.89% # Distribution of cycle latency between the first time a load is issued and its completion (Unspecified)
system.cpu.lsq0.loadToUse::70-79                10356      0.02%     99.91% # Distribution of cycle latency between the first time a load is issued and its completion (Unspecified)
system.cpu.lsq0.loadToUse::80-89                 4091      0.01%     99.92% # Distribution of cycle latency between the first time a load is issued and its completion (Unspecified)
system.cpu.lsq0.loadToUse::90-99                 1342      0.00%     99.92% # Distribution of cycle latency between the first time a load is issued and its completion (Unspecified)
system.cpu.lsq0.loadToUse::100-109                819      0.00%     99.93% # Distribution of cycle latency between the first time a load is issued and its completion (Unspecified)
system.cpu.lsq0.loadToUse::110-119                604      0.00%     99.93% # Distribution of cycle latency between the first time a load is issued and its completion (Unspecified)
system.cpu.lsq0.loadToUse::120-129               5848      0.01%     99.94% # Distribution of cycle latency between the first time a load is issued and its completion (Unspecified)
system.cpu.lsq0.loadToUse::130-139               8616      0.02%     99.96% # Distribution of cycle latency between the first time a load is issued and its completion (Unspecified)
system.cpu.lsq0.loadToUse::140-149                612      0.00%     99.96% # Distribution of cycle latency between the first time a load is issued and its completion (Unspecified)
system.cpu.lsq0.loadToUse::150-159                813      0.00%     99.96% # Distribution of cycle latency between the first time a load is issued and its completion (Unspecified)
[...]
system.mem_ctrl.dram.perBankRdBursts::7          1316                       # Per bank write bursts (Count)
system.mem_ctrl.dram.perBankRdBursts::8          1362                       # Per bank write bursts (Count)
system.mem_ctrl.dram.perBankRdBursts::9          1346                       # Per bank write bursts (Count)
system.mem_ctrl.dram.perBankRdBursts::10         1357                       # Per bank write bursts (Count)
system.mem_ctrl.dram.perBankRdBursts::11         1307                       # Per bank write bursts (Count)
system.mem_ctrl.dram.perBankRdBursts::12         1297                       # Per bank write bursts (Count)
system.mem_ctrl.dram.perBankRdBursts::13         1288                       # Per bank write bursts (Count)
system.mem_ctrl.dram.perBankRdBursts::14         1304                       # Per bank write bursts (Count)
system.mem_ctrl.dram.perBankRdBursts::15         1348                       # Per bank write bursts (Count)
system.mem_ctrl.dram.perBankRdBursts::16         1310                       # Per bank write bursts (Count)
system.mem_ctrl.dram.perBankRdBursts::17         1315                       # Per bank write bursts (Count)
system.mem_ctrl.dram.perBankRdBursts::18         1353                       # Per bank write bursts (Count)
system.mem_ctrl.dram.perBankRdBursts::19         1293                       # Per bank write bursts (Count)
system.mem_ctrl.dram.perBankRdBursts::20         1296                       # Per bank write bursts (Count)
system.mem_ctrl.dram.perBankRdBursts::21         1348                       # Per bank write bursts (Count)
system.mem_ctrl.dram.perBankRdBursts::22         1317                       # Per bank write bursts (Count)
system.mem_ctrl.dram.perBankRdBursts::23         1251                       # Per bank write bursts (Count)
system.mem_ctrl.dram.perBankRdBursts::24         1156                       # Per bank write bursts (Count)
system.mem_ctrl.dram.perBankRdBursts::25         1231                       # Per bank write bursts (Count)
system.mem_ctrl.dram.perBankRdBursts::26         1283                       # Per bank write bursts (Count)
system.mem_ctrl.dram.perBankRdBursts::27         1180                       # Per bank write bursts (Count)
system.mem_ctrl.dram.perBankRdBursts::28         1186                       # Per bank write bursts (Count)
system.mem_ctrl.dram.perBankRdBursts::29         1238                       # Per bank write bursts (Count)
system.mem_ctrl.dram.perBankRdBursts::30         1294                       # Per bank write bursts (Count)
system.mem_ctrl.dram.perBankRdBursts::31         1285                       # Per bank write bursts (Count)
system.mem_ctrl.dram.perBankWrBursts::0           711                       # Per bank write bursts (Count)
system.mem_ctrl.dram.perBankWrBursts::1           673                       # Per bank write bursts (Count)
system.mem_ctrl.dram.perBankWrBursts::2           646                       # Per bank write bursts (Count)
system.mem_ctrl.dram.perBankWrBursts::3           643                       # Per bank write bursts (Count)
system.mem_ctrl.dram.perBankWrBursts::4           768                       # Per bank write bursts (Count)
system.mem_ctrl.dram.perBankWrBursts::5           768                       # Per bank write bursts (Count)
system.mem_ctrl.dram.perBankWrBursts::6           768                       # Per bank write bursts (Count)
system.mem_ctrl.dram.perBankWrBursts::7           768                       # Per bank write bursts (Count)
system.mem_ctrl.dram.perBankWrBursts::8           768                       # Per bank write bursts (Count)
system.mem_ctrl.dram.perBankWrBursts::9           768                       # Per bank write bursts (Count)
system.mem_ctrl.dram.perBankWrBursts::10          768                       # Per bank write bursts (Count)
system.mem_ctrl.dram.perBankWrBursts::11          768                       # Per bank write bursts (Count)
system.mem_ctrl.dram.perBankWrBursts::12          768                       # Per bank write bursts (Count)
system.mem_ctrl.dram.perBankWrBursts::13          768                       # Per bank write bursts (Count)
system.mem_ctrl.dram.perBankWrBursts::14          768                       # Per bank write bursts (Count)
system.mem_ctrl.dram.perBankWrBursts::15          768                       # Per bank write bursts (Count)
system.mem_ctrl.dram.perBankWrBursts::16          768                       # Per bank write bursts (Count)
system.mem_ctrl.dram.perBankWrBursts::17          768                       # Per bank write bursts (Count)
system.mem_ctrl.dram.perBankWrBursts::18          768                       # Per bank write bursts (Count)
system.mem_ctrl.dram.perBankWrBursts::19          765                       # Per bank write bursts (Count)
system.mem_ctrl.dram.perBankWrBursts::20          768                       # Per bank write bursts (Count)
system.mem_ctrl.dram.perBankWrBursts::21          768                       # Per bank write bursts (Count)
system.mem_ctrl.dram.perBankWrBursts::22          768                       # Per bank write bursts (Count)
system.mem_ctrl.dram.perBankWrBursts::23          768                       # Per bank write bursts (Count)
system.mem_ctrl.dram.perBankWrBursts::24          768                       # Per bank write bursts (Count)
system.mem_ctrl.dram.perBankWrBursts::25          768                       # Per bank write bursts (Count)
system.mem_ctrl.dram.perBankWrBursts::26          802                       # Per bank write bursts (Count)
system.mem_ctrl.dram.perBankWrBursts::27          775                       # Per bank write bursts (Count)
system.mem_ctrl.dram.perBankWrBursts::28          768                       # Per bank write bursts (Count)
system.mem_ctrl.dram.perBankWrBursts::29          793                       # Per bank write bursts (Count)
system.mem_ctrl.dram.perBankWrBursts::30          835                       # Per bank write bursts (Count)
system.mem_ctrl.dram.perBankWrBursts::31          684                       # Per bank write bursts (Count)
system.mem_ctrl.dram.totQLat               1073372144                       # Total ticks spent queuing (Tick)
system.mem_ctrl.dram.totBusLat              139577480                       # Total ticks spent in databus transfers (Tick)
system.mem_ctrl.dram.totMemAccLat          1806112024                       # Total ticks spent from burst creation until serviced by the DRAM (Tick)
system.mem_ctrl.dram.avgQLat                 25623.59                       # Average queueing delay per DRAM burst ((Tick/Count))
system.mem_ctrl.dram.avgBusLat                3332.00                       # Average bus latency per DRAM burst ((Tick/Count))
system.mem_ctrl.dram.avgMemAccLat            43115.59                       # Average memory access latency per DRAM burst ((Tick/Count))
system.mem_ctrl.dram.readRowHits                28298                       # Number of row buffer hits during reads (Count)
system.mem_ctrl.dram.writeRowHits               21698                       # Number of row buffer hits during writes (Count)
system.mem_ctrl.dram.readRowHitRate             67.55                       # Row buffer hit rate for reads (Ratio)
system.mem_ctrl.dram.writeRowHitRate            89.58                       # Row buffer hit rate for writes (Ratio)
system.mem_ctrl.dram.bytesPerActivate::samples        16117                       # Bytes accessed per row activation (Byte)
system.mem_ctrl.dram.bytesPerActivate::mean   262.532233                       # Bytes accessed per row activation (Byte)
system.mem_ctrl.dram.bytesPerActivate::gmean   166.557469                       # Bytes accessed per row activation (Byte)
system.mem_ctrl.dram.bytesPerActivate::stdev   302.904418                       # Bytes accessed per row activation (Byte)
system.mem_ctrl.dram.bytesPerActivate::0-127         4342     26.94%     26.94% # Bytes accessed per row activation (Byte)
system.mem_ctrl.dram.bytesPerActivate::128-255         8483     52.63%     79.57% # Bytes accessed per row activation (Byte)
system.mem_ctrl.dram.bytesPerActivate::256-383          344      2.13%     81.71% # Bytes accessed per row activation (Byte)
system.mem_ctrl.dram.bytesPerActivate::384-511          240      1.49%     83.20% # Bytes accessed per row activation (Byte)
system.mem_ctrl.dram.bytesPerActivate::512-639          535      3.32%     86.52% # Bytes accessed per row activation (Byte)
system.mem_ctrl.dram.bytesPerActivate::640-767          129      0.80%     87.32% # Bytes accessed per row activation (Byte)
system.mem_ctrl.dram.bytesPerActivate::768-895          114      0.71%     88.03% # Bytes accessed per row activation (Byte)
system.mem_ctrl.dram.bytesPerActivate::896-1023          188      1.17%     89.19% # Bytes accessed per row activation (Byte)
system.mem_ctrl.dram.bytesPerActivate::1024-1151         1742     10.81%    100.00% # Bytes accessed per row activation (Byte)
system.mem_ctrl.dram.bytesPerActivate::total        16117                       # Bytes accessed per row activation (Byte)
system.mem_ctrl.dram.bytesRead                2680960                       # Total bytes read (Byte)
system.mem_ctrl.dram.bytesWritten             1550272                       # Total bytes written (Byte)
system.mem_ctrl.dram.avgRdBW                53.023711                       # Average DRAM read bandwidth in MiBytes/s ((Byte/Second))
system.mem_ctrl.dram.avgWrBW                30.661097                       # Average DRAM write bandwidth in MiBytes/s ((Byte/Second))
system.mem_ctrl.dram.peakBW                  19207.00                       # Theoretical peak bandwidth in MiByte/s ((Byte/Second))
system.mem_ctrl.dram.busUtil                     0.44                       # Data bus utilization in percentage (Ratio)
system.mem_ctrl.dram.busUtilRead                 0.28                       # Data bus utilization in percentage for reads (Ratio)
system.mem_ctrl.dram.busUtilWrite                0.16                       # Data bus utilization in percentage for writes (Ratio)
system.mem_ctrl.dram.pageHitRate                75.62                       # Row buffer hit rate, read and write combined (Ratio)
system.mem_ctrl.dram.power_state.pwrStateResidencyTicks::UNDEFINED  50561530500                       # Cumulative time (in ticks) in various power states (Tick)
system.mem_ctrl.dram.rank0.actEnergy     25470847.584001                       # Energy for activate commands per rank (pJ) (Joule)
system.mem_ctrl.dram.rank0.preEnergy     33863165.313599                       # Energy for precharge commands per rank (pJ) (Joule)
system.mem_ctrl.dram.rank0.readEnergy    90662952.307194                       # Energy for read commands per rank (pJ) (Joule)
system.mem_ctrl.dram.rank0.writeEnergy   44684758.944000                       # Energy for write commands per rank (pJ) (Joule)
system.mem_ctrl.dram.rank0.refreshEnergy 8996642311.037066                       # Energy for refresh commands per rank (pJ) (Joule)
system.mem_ctrl.dram.rank0.actBackEnergy 18149029323.264225                       # Energy for active background per rank (pJ) (Joule)
system.mem_ctrl.dram.rank0.preBackEnergy 19061584027.315998                       # Energy for precharge background per rank (pJ) (Joule)
system.mem_ctrl.dram.rank0.actPowerDownEnergy            0                       # Energy for active power-down per rank (pJ) (Joule)
system.mem_ctrl.dram.rank0.prePowerDownEnergy            0                       # Energy for precharge power-down per rank (pJ) (Joule)
system.mem_ctrl.dram.rank0.selfRefreshEnergy            0                       # Energy for self refresh per rank (pJ) (Joule)
system.mem_ctrl.dram.rank0.totalEnergy   46401937385.765999                       # Total energy per rank (pJ) (Joule)
system.mem_ctrl.dram.rank0.averagePower    917.732057                       # Core power per rank (mW) (Watt)
system.mem_ctrl.dram.rank0.totalIdleTime            0                       # Total Idle time Per DRAM Rank (Tick)
system.mem_ctrl.dram.rank0.pwrStateTime::IDLE  29057030030                       # Time in different power states (Tick)
system.mem_ctrl.dram.rank0.pwrStateTime::REF   2272835540                       # Time in different power states (Tick)
system.mem_ctrl.dram.rank0.pwrStateTime::SREF            0                       # Time in different power states (Tick)
system.mem_ctrl.dram.rank0.pwrStateTime::PRE_PDN            0                       # Time in different power states (Tick)
system.mem_ctrl.dram.rank0.pwrStateTime::ACT  19231664930                       # Time in different power states (Tick)
system.mem_ctrl.dram.rank0.pwrStateTime::ACT_PDN            0                       # Time in different power states (Tick)
system.mem_ctrl.dram.rank1.actEnergy     24794078.400001                       # Energy for activate commands per rank (pJ) (Joule)
system.mem_ctrl.dram.rank1.preEnergy     32963409.359998                       # Energy for precharge commands per rank (pJ) (Joule)
system.mem_ctrl.dram.rank1.readEnergy    85539658.444795                       # Energy for read commands per rank (pJ) (Joule)
system.mem_ctrl.dram.rank1.writeEnergy   46357289.664000                       # Energy for write commands per rank (pJ) (Joule)
system.mem_ctrl.dram.rank1.refreshEnergy 8996642311.037066                       # Energy for refresh commands per rank (pJ) (Joule)
system.mem_ctrl.dram.rank1.actBackEnergy 19670386189.003311                       # Energy for active background per rank (pJ) (Joule)
system.mem_ctrl.dram.rank1.preBackEnergy 17892641103.590912                       # Energy for precharge background per rank (pJ) (Joule)
system.mem_ctrl.dram.rank1.actPowerDownEnergy            0                       # Energy for active power-down per rank (pJ) (Joule)
system.mem_ctrl.dram.rank1.prePowerDownEnergy            0                       # Energy for precharge power-down per rank (pJ) (Joule)
system.mem_ctrl.dram.rank1.selfRefreshEnergy            0                       # Energy for self refresh per rank (pJ) (Joule)
system.mem_ctrl.dram.rank1.totalEnergy   46749324039.500153                       # Total energy per rank (pJ) (Joule)
system.mem_ctrl.dram.rank1.averagePower    924.602629                       # Core power per rank (mW) (Watt)
system.mem_ctrl.dram.rank1.totalIdleTime            0                       # Total Idle time Per DRAM Rank (Tick)
system.mem_ctrl.dram.rank1.pwrStateTime::IDLE  27256747608                       # Time in different power states (Tick)
system.mem_ctrl.dram.rank1.pwrStateTime::REF   2272821380                       # Time in different power states (Tick)
system.mem_ctrl.dram.rank1.pwrStateTime::SREF            0                       # Time in different power states (Tick)
system.mem_ctrl.dram.rank1.pwrStateTime::PRE_PDN            0                       # Time in different power states (Tick)
system.mem_ctrl.dram.rank1.pwrStateTime::ACT  21031961512                       # Time in different power states (Tick)
system.mem_ctrl.dram.rank1.pwrStateTime::ACT_PDN            0                       # Time in different power states (Tick)
system.mem_ctrl.power_state.pwrStateResidencyTicks::UNDEFINED  50561530500                       # Cumulative time (in ticks) in various power states (Tick)
system.membus.transDist::ReadResp               14589                       # Transaction distribution (Count)
system.membus.transDist::WritebackDirty         24282                       # Transaction distribution (Count)
system.membus.transDist::CleanEvict             13003                       # Transaction distribution (Count)
system.membus.transDist::ReadExReq              27307                       # Transaction distribution (Count)
system.membus.transDist::ReadExResp             27307                       # Transaction distribution (Count)
system.membus.transDist::ReadSharedReq          14589                       # Transaction distribution (Count)
system.membus.pktCount_system.l2cache.mem_side_port::system.mem_ctrl.port       121077                       # Packet count per connected requestor and responder (Count)
system.membus.pktCount::total                  121077                       # Packet count per connected requestor and responder (Count)
system.membus.pktSize_system.l2cache.mem_side_port::system.mem_ctrl.port      4235392                       # Cumulative packet size per connected requestor and responder (Byte)
system.membus.pktSize::total                  4235392                       # Cumulative packet size per connected requestor and responder (Byte)
system.membus.snoops                                0                       # Total snoops (Count)
system.membus.snoopTraffic                          0                       # Total snoop traffic (Byte)
system.membus.snoopFanout::samples              41896                       # Request fanout histogram (Count)
system.membus.snoopFanout::mean                     0                       # Request fanout histogram (Count)
system.membus.snoopFanout::stdev                    0                       # Request fanout histogram (Count)
system.membus.snoopFanout::underflows               0      0.00%      0.00% # Request fanout histogram (Count)
system.membus.snoopFanout::0                    41896    100.00%    100.00% # Request fanout histogram (Count)
system.membus.snoopFanout::1                        0      0.00%    100.00% # Request fanout histogram (Count)
system.membus.snoopFanout::overflows                0      0.00%    100.00% # Request fanout histogram (Count)
system.membus.snoopFanout::min_value                0                       # Request fanout histogram (Count)
system.membus.snoopFanout::max_value                0                       # Request fanout histogram (Count)
system.membus.snoopFanout::total                41896                       # Request fanout histogram (Count)
system.membus.power_state.pwrStateResidencyTicks::UNDEFINED  50561530500                       # Cumulative time (in ticks) in various power states (Tick)
system.membus.reqLayer0.occupancy            88154500                       # Layer occupancy (ticks) (Tick)
system.membus.reqLayer0.utilization               0.0                       # Layer utilization (Ratio)
system.membus.respLayer0.occupancy          109916976                       # Layer occupancy (ticks) (Tick)
system.membus.respLayer0.utilization              0.0                       # Layer utilization (Ratio)
system.membus.snoop_filter.totRequests          79181                       # Total number of requests made to the snoop filter. (Count)
system.membus.snoop_filter.hitSingleRequests        37306                       # Number of requests hitting in the snoop filter with a single holder of the requested data. (Count)
system.membus.snoop_filter.hitMultiRequests            0                       # Number of requests hitting in the snoop filter with multiple (>1) holders of the requested data. (Count)
system.membus.snoop_filter.totSnoops                0                       # Total number of snoops made to the snoop filter. (Count)
system.membus.snoop_filter.hitSingleSnoops            0                       # Number of snoops hitting in the snoop filter with a single holder of the requested data. (Count)
system.membus.snoop_filter.hitMultiSnoops            0                       # Number of snoops hitting in the snoop filter with multiple (>1) holders of the requested data. (Count)
system.workload.inst.arm                            0                       # number of arm instructions executed (Count)
system.workload.inst.quiesce                        0                       # number of quiesce instructions executed (Count)

---------- End Simulation Statistics   ----------
