
---------- Begin Simulation Statistics ----------
simSeconds                                   0.041944                       # Number of seconds simulated (Second)
simTicks                                  41944208500                       # Number of ticks simulated (Tick)
finalTick                                 41944208500                       # Number of ticks from beginning of simulation (restored from checkpoints and never reset) (Tick)
simFreq                                  1000000000000                       # The number of ticks per simulated second ((Tick/Second))
hostSeconds                                    578.06                       # Real time elapsed on the host (Second)
hostTickRate                                 72560515                       # The number of ticks simulated per host second (ticks/s) ((Tick/Second))
hostMemory                                    2238188                       # Number of bytes of host memory used (Byte)
simInsts                                    200000005                       # Number of instructions simulated (Count)
simOps                                      235916942                       # Number of ops (including micro ops) simulated (Count)
hostInstRate                                   345986                       # Simulator instruction rate (inst/s) ((Count/Second))
hostOpRate                                     408120                       # Simulator op (including micro ops) rate (op/s) ((Count/Second))
system.clk_domain.clock                           500                       # Clock period in ticks (Tick)
system.clk_domain.voltage_domain.voltage            1                       # Voltage in Volts (Volt)
system.cpu.numCycles                         83888418                       # Number of cpu cycles simulated (Cycle)
system.cpu.numWorkItemsStarted                      0                       # Number of work items this cpu started (Count)
system.cpu.numWorkItemsCompleted                    0                       # Number of work items this cpu completed (Count)
system.cpu.instsAdded                       243228912                       # Number of instructions added to the IQ (excludes non-spec) (Count)
system.cpu.nonSpecInstsAdded                      110                       # Number of non-speculative instructions added to the IQ (Count)
system.cpu.instsIssued                      244294137                       # Number of instructions issued (Count)
system.cpu.squashedInstsIssued                    774                       # Number of squashed instructions issued (Count)
system.cpu.squashedInstsExamined              7312020                       # Number of squashed instructions iterated over during squash; mainly for profiling (Count)
system.cpu.squashedOperandsExamined          23788632                       # Number of squashed operands that are examined and possibly removed from graph (Count)
system.cpu.squashedNonSpecRemoved                  14                       # Number of squashed non-spec instructions that were removed (Count)
system.cpu.numIssuedDist::samples            83869596                       # Number of insts issued each cycle (Count)
system.cpu.numIssuedDist::mean               2.912785                       # Number of insts issued each cycle (Count)
system.cpu.numIssuedDist::stdev              2.322181                       # Number of insts issued each cycle (Count)
system.cpu.numIssuedDist::underflows                0      0.00%      0.00% # Number of insts issued each cycle (Count)
system.cpu.numIssuedDist::0                  16204023     19.32%     19.32% # Number of insts issued each cycle (Count)
system.cpu.numIssuedDist::1                  10349596     12.34%     31.66% # Number of insts issued each cycle (Count)
system.cpu.numIssuedDist::2                  14697042     17.52%     49.18% # Number of insts issued each cycle (Count)
system.cpu.numIssuedDist::3                  11557746     13.78%     62.96% # Number of insts issued each cycle (Count)
system.cpu.numIssuedDist::4                  10257959     12.23%     75.20% # Number of insts issued each cycle (Count)
system.cpu.numIssuedDist::5                   7804106      9.31%     84.50% # Number of insts issued each cycle (Count)
system.cpu.numIssuedDist::6                   6018035      7.18%     91.68% # Number of insts issued each cycle (Count)
system.cpu.numIssuedDist::7                   2132069      2.54%     94.22% # Number of insts issued each cycle (Count)
system.cpu.numIssuedDist::8                   4849020      5.78%    100.00% # Number of insts issued each cycle (Count)
system.cpu.numIssuedDist::overflows                 0      0.00%    100.00% # Number of insts issued each cycle (Count)
system.cpu.numIssuedDist::min_value                 0                       # Number of insts issued each cycle (Count)
system.cpu.numIssuedDist::max_value                 8                       # Number of insts issued each cycle (Count)
system.cpu.numIssuedDist::total              83869596                       # Number of insts issued each cycle (Count)
system.cpu.statFuBusy::No_OpClass                   0      0.00%      0.00% # attempts to use FU when none available (Count)
system.cpu.statFuBusy::IntAlu                  537481     97.13%     97.13% # attempts to use FU when none available (Count)
system.cpu.statFuBusy::IntMult                      0      0.00%     97.13% # attempts to use FU when none available (Count)
system.cpu.statFuBusy::IntDiv                       0      0.00%     97.13% # attempts to use FU when none available (Count)
system.cpu.statFuBusy::FloatAdd                     0      0.00%     97.13% # attempts to use FU when none available (Count)
system.cpu.statFuBusy::FloatCmp                     0      0.00%     97.13% # attempts to use FU when none available (Count)
system.cpu.statFuBusy::FloatCvt                     0      0.00%     97.13% # attempts to use FU when none available (Count)
system.cpu.statFuBusy::FloatMult                    0      0.00%     97.13% # attempts to use FU when none available (Count)
system.cpu.statFuBusy::FloatMultAcc                 0      0.00%     97.13% # attempts to use FU when none available (Count)
system.cpu.statFuBusy::FloatDiv                     0      0.00%     97.13% # attempts to use FU when none available (Count)
system.cpu.statFuBusy::FloatMisc                    0      0.00%     97.13% # attempts to use FU when none available (Count)
system.cpu.statFuBusy::FloatSqrt                    0      0.00%     97.13% # attempts to use FU when none available (Count)
system.cpu.statFuBusy::SimdAdd                      0      0.00%     97.13% # attempts to use FU when none available (Count)
system.cpu.statFuBusy::SimdAddAcc                   0      0.00%     97.13% # attempts to use FU when none available (Count)
system.cpu.statFuBusy::SimdAlu                      0      0.00%     97.13% # attempts to use FU when none available (Count)
system.cpu.statFuBusy::SimdCmp                      0      0.00%     97.13% # attempts to use FU when none available (Count)
system.cpu.statFuBusy::SimdCvt                      0      0.00%     97.13% # attempts to use FU when none available (Count)
system.cpu.statFuBusy::SimdMisc                     0      0.00%     97.13% # attempts to use FU when none available (Count)
system.cpu.statFuBusy::SimdMult                     0      0.00%     97.13% # attempts to use FU when none available (Count)
system.cpu.statFuBusy::SimdMultAcc                  0      0.00%     97.13% # attempts to use FU when none available (Count)
system.cpu.statFuBusy::SimdShift                    0      0.00%     97.13% # attempts to use FU when none available (Count)
system.cpu.statFuBusy::SimdShiftAcc                 0      0.00%     97.13% # attempts to use FU when none available (Count)
system.cpu.statFuBusy::SimdDiv                      0      0.00%     97.13% # attempts to use FU when none available (Count)
system.cpu.statFuBusy::SimdSqrt                     0      0.00%     97.13% # attempts to use FU when none available (Count)
system.cpu.statFuBusy::SimdFloatAdd                 0      0.00%     97.13% # attempts to use FU when none available (Count)
system.cpu.statFuBusy::SimdFloatAlu                 0      0.00%     97.13% # attempts to use FU when none available (Count)
system.cpu.statFuBusy::SimdFloatCmp                 0      0.00%     97.13% # attempts to use FU when none available (Count)
system.cpu.statFuBusy::SimdFloatCvt                 0      0.00%     97.13% # attempts to use FU when none available (Count)
system.cpu.statFuBusy::SimdFloatDiv                 0      0.00%     97.13% # attempts to use FU when none available (Count)
system.cpu.statFuBusy::SimdFloatMisc                0      0.00%     97.13% # attempts to use FU when none available (Count)
system.cpu.statFuBusy::SimdFloatMult                0      0.00%     97.13% # attempts to use FU when none available (Count)
system.cpu.statFuBusy::SimdFloatMultAcc             0      0.00%     97.13% # attempts to use FU when none available (Count)
system.cpu.statFuBusy::SimdFloatSqrt                0      0.00%     97.13% # attempts to use FU when none available (Count)
system.cpu.statFuBusy::SimdReduceAdd                0      0.00%     97.13% # attempts to use FU when none available (Count)
system.cpu.statFuBusy::SimdReduceAlu                0      0.00%     97.13% # attempts to use FU when none available (Count)
system.cpu.statFuBusy::SimdReduceCmp                0      0.00%     97.13% # attempts to use FU when none available (Count)
system.cpu.statFuBusy::SimdFloatReduceAdd            0      0.00%     97.13% # attempts to use FU when none available (Count)
system.cpu.statFuBusy::SimdFloatReduceCmp            0      0.00%     97.13% # attempts to use FU when none available (Count)
system.cpu.statFuBusy::SimdAes                      0      0.00%     97.13% # attempts to use FU when none available (Count)
system.cpu.statFuBusy::SimdAesMix                   0      0.00%     97.13% # attempts to use FU when none available (Count)
system.cpu.statFuBusy::SimdSha1Hash                 0      0.00%     97.13% # attempts to use FU when none available (Count)
system.cpu.statFuBusy::SimdSha1Hash2                0      0.00%     97.13% # attempts to use FU when none available (Count)
system.cpu.statFuBusy::SimdSha256Hash               0      0.00%     97.13% # attempts to use FU when none available (Count)
system.cpu.statFuBusy::SimdSha256Hash2              0      0.00%     97.13% # attempts to use FU when none available (Count)
system.cpu.statFuBusy::SimdShaSigma2                0      0.00%     97.13% # attempts to use FU when none available (Count)
system.cpu.statFuBusy::SimdShaSigma3                0      0.00%     97.13% # attempts to use FU when none available (Count)
system.cpu.statFuBusy::SimdPredAlu                  0      0.00%     97.13% # attempts to use FU when none available (Count)
system.cpu.statFuBusy::MemRead                  14607      2.64%     99.77% # attempts to use FU when none available (Count)
system.cpu.statFuBusy::MemWrite                  1264      0.23%    100.00% # attempts to use FU when none available (Count)
system.cpu.statFuBusy::FloatMemRead                 0      0.00%    100.00% # attempts to use FU when none available (Count)
system.cpu.statFuBusy::FloatMemWrite                0      0.00%    100.00% # attempts to use FU when none available (Count)
system.cpu.statFuBusy::IprAccess                    0      0.00%    100.00% # attempts to use FU when none available (Count)
system.cpu.statFuBusy::InstPrefetch                 0      0.00%    100.00% # attempts to use FU when none available (Count)
system.cpu.statIssuedInstType_0::No_OpClass            3      0.00%      0.00% # Number of instructions issued per FU type, per thread (Count)
system.cpu.statIssuedInstType_0::IntAlu     191221859     78.28%     78.28% # Number of instructions issued per FU type, per thread (Count)
system.cpu.statIssuedInstType_0::IntMult      4263338      1.75%     80.02% # Number of instructions issued per FU type, per thread (Count)
system.cpu.statIssuedInstType_0::IntDiv             0      0.00%     80.02% # Number of instructions issued per FU type, per thread (Count)
system.cpu.statIssuedInstType_0::FloatAdd            0      0.00%     80.02% # Number of instructions issued per FU type, per thread (Count)
system.cpu.statIssuedInstType_0::FloatCmp            0      0.00%     80.02% # Number of instructions issued per FU type, per thread (Count)
system.cpu.statIssuedInstType_0::FloatCvt            0      0.00%     80.02% # Number of instructions issued per FU type, per thread (Count)
system.cpu.statIssuedInstType_0::FloatMult            0      0.00%     80.02% # Number of instructions issued per FU type, per thread (Count)
system.cpu.statIssuedInstType_0::FloatMultAcc            0      0.00%     80.02% # Number of instructions issued per FU type, per thread (Count)
system.cpu.statIssuedInstType_0::FloatDiv            0      0.00%     80.02% # Number of instructions issued per FU type, per thread (Count)
system.cpu.statIssuedInstType_0::FloatMisc            0      0.00%     80.02% # Number of instructions issued per FU type, per thread (Count)
system.cpu.statIssuedInstType_0::FloatSqrt            0      0.00%     80.02% # Number of instructions issued per FU type, per thread (Count)
system.cpu.statIssuedInstType_0::SimdAdd            0      0.00%     80.02% # Number of instructions issued per FU type, per thread (Count)
system.cpu.statIssuedInstType_0::SimdAddAcc            0      0.00%     80.02% # Number of instructions issued per FU type, per thread (Count)
system.cpu.statIssuedInstType_0::SimdAlu            0      0.00%     80.02% # Number of instructions issued per FU type, per thread (Count)
system.cpu.statIssuedInstType_0::SimdCmp            0      0.00%     80.02% # Number of instructions issued per FU type, per thread (Count)
system.cpu.statIssuedInstType_0::SimdCvt            0      0.00%     80.02% # Number of instructions issued per FU type, per thread (Count)
system.cpu.statIssuedInstType_0::SimdMisc            0      0.00%     80.02% # Number of instructions issued per FU type, per thread (Count)
system.cpu.statIssuedInstType_0::SimdMult            0      0.00%     80.02% # Number of instructions issued per FU type, per thread (Count)
system.cpu.statIssuedInstType_0::SimdMultAcc            0      0.00%     80.02% # Number of instructions issued per FU type, per thread (Count)
system.cpu.statIssuedInstType_0::SimdShift            0      0.00%     80.02% # Number of instructions issued per FU type, per thread (Count)
system.cpu.statIssuedInstType_0::SimdShiftAcc            0      0.00%     80.02% # Number of instructions issued per FU type, per thread (Count)
system.cpu.statIssuedInstType_0::SimdDiv            0      0.00%     80.02% # Number of instructions issued per FU type, per thread (Count)
system.cpu.statIssuedInstType_0::SimdSqrt            0      0.00%     80.02% # Number of instructions issued per FU type, per thread (Count)
system.cpu.statIssuedInstType_0::SimdFloatAdd            0      0.00%     80.02% # Number of instructions issued per FU type, per thread (Count)
system.cpu.statIssuedInstType_0::SimdFloatAlu            0      0.00%     80.02% # Number of instructions issued per FU type, per thread (Count)
system.cpu.statIssuedInstType_0::SimdFloatCmp            0      0.00%     80.02% # Number of instructions issued per FU type, per thread (Count)
system.cpu.statIssuedInstType_0::SimdFloatCvt            0      0.00%     80.02% # Number of instructions issued per FU type, per thread (Count)
system.cpu.statIssuedInstType_0::SimdFloatDiv            0      0.00%     80.02% # Number of instructions issued per FU type, per thread (Count)
system.cpu.statIssuedInstType_0::SimdFloatMisc            0      0.00%     80.02% # Number of instructions issued per FU type, per thread (Count)
system.cpu.statIssuedInstType_0::SimdFloatMult            0      0.00%     80.02% # Number of instructions issued per FU type, per thread (Count)
system.cpu.statIssuedInstType_0::SimdFloatMultAcc            0      0.00%     80.02% # Number of instructions issued per FU type, per thread (Count)
system.cpu.statIssuedInstType_0::SimdFloatSqrt            0      0.00%     80.02% # Number of instructions issued per FU type, per thread (Count)
system.cpu.statIssuedInstType_0::SimdReduceAdd            0      0.00%     80.02% # Number of instructions issued per FU type, per thread (Count)
system.cpu.statIssuedInstType_0::SimdReduceAlu            0      0.00%     80.02% # Number of instructions issued per FU type, per thread (Count)
system.cpu.statIssuedInstType_0::SimdReduceCmp            0      0.00%     80.02% # Number of instructions issued per FU type, per thread (Count)
system.cpu.statIssuedInstType_0::SimdFloatReduceAdd            0      0.00%     80.02% # Number of instructions issued per FU type, per thread (Count)
system.cpu.statIssuedInstType_0::SimdFloatReduceCmp            0      0.00%     80.02% # Number of instructions issued per FU type, per thread (Count)
system.cpu.statIssuedInstType_0::SimdAes            0      0.00%     80.02% # Number of instructions issued per FU type, per thread (Count)
system.cpu.statIssuedInstType_0::SimdAesMix            0      0.00%     80.02% # Number of instructions issued per FU type, per thread (Count)
system.cpu.statIssuedInstType_0::SimdSha1Hash            0      0.00%     80.02% # Number of instructions issued per FU type, per thread (Count)
system.cpu.statIssuedInstType_0::SimdSha1Hash2            0      0.00%     80.02% # Number of instructions issued per FU type, per thread (Count)
system.cpu.statIssuedInstType_0::SimdSha256Hash            0      0.00%     80.02% # Number of instructions issued per FU type, per thread (Count)
system.cpu.statIssuedInstType_0::SimdSha256Hash2            0      0.00%     80.02% # Number of instructions issued per FU type, per thread (Count)
system.cpu.statIssuedInstType_0::SimdShaSigma2            0      0.00%     80.02% # Number of instructions issued per FU type, per thread (Count)
system.cpu.statIssuedInstType_0::SimdShaSigma3            0      0.00%     80.02% # Number of instructions issued per FU type, per thread (Count)
system.cpu.statIssuedInstType_0::SimdPredAlu            0      0.00%     80.02% # Number of instructions issued per FU type, per thread (Count)
system.cpu.statIssuedInstType_0::MemRead     26914960     11.02%     91.04% # Number of instructions issued per FU type, per thread (Count)
system.cpu.statIssuedInstType_0::MemWrite     21893977      8.96%    100.00% # Number of instructions issued per FU type, per thread (Count)
system.cpu.statIssuedInstType_0::FloatMemRead            0      0.00%    100.00% # Number of instructions issued per FU type, per thread (Count)
system.cpu.statIssuedInstType_0::FloatMemWrite            0      0.00%    100.00% # Number of instructions issued per FU type, per thread (Count)
system.cpu.statIssuedInstType_0::IprAccess            0      0.00%    100.00% # Number of instructions issued per FU type, per thread (Count)
system.cpu.statIssuedInstType_0::InstPrefetch            0      0.00%    100.00% # Number of instructions issued per FU type, per thread (Count)
system.cpu.statIssuedInstType_0::total      244294137                       # Number of instructions issued per FU type, per thread (Count)
system.cpu.issueRate                         2.912132                       # Inst issue rate ((Count/Cycle))
system.cpu.fuBusy                              553352                       # FU busy when requested (Count)
system.cpu.fuBusyRate                        0.002265                       # FU busy rate (busy events/executed inst) ((Count/Count))
system.cpu.intInstQueueReads                573011995                       # Number of integer instruction queue reads (Count)
system.cpu.intInstQueueWrites               250542036                       # Number of integer instruction queue writes (Count)
system.cpu.intInstQueueWakeupAccesses       238307162                       # Number of integer instruction queue wakeup accesses (Count)
system.cpu.fpInstQueueReads                         0                       # Number of floating instruction queue reads (Count)
system.cpu.fpInstQueueWrites                        0                       # Number of floating instruction queue writes (Count)
system.cpu.fpInstQueueWakeupAccesses                0                       # Number of floating instruction queue wakeup accesses (Count)
system.cpu.vecInstQueueReads                        0                       # Number of vector instruction queue reads (Count)
system.cpu.vecInstQueueWrites                       0                       # Number of vector instruction queue writes (Count)
system.cpu.vecInstQueueWakeupAccesses               0                       # Number of vector instruction queue wakeup accesses (Count)
system.cpu.intAluAccesses                   244847486                       # Number of integer alu accesses (Count)
system.cpu.fpAluAccesses                            0                       # Number of floating point alu accesses (Count)
system.cpu.vecAluAccesses                           0                       # Number of vector alu accesses (Count)
system.cpu.numInsts                         244237443                       # Number of executed instructions (Count)
system.cpu.numLoadInsts                      26899202                       # Number of load instructions executed (Count)
system.cpu.numSquashedInsts                     56693                       # Number of squashed instructions skipped in execute (Count)
system.cpu.numSwp                                   0                       # Number of swp insts executed (Count)
system.cpu.numNop                                   0                       # Number of nop insts executed (Count)
system.cpu.numRefs                           48789030                       # Number of memory reference insts executed (Count)
system.cpu.numBranches                       28647649                       # Number of branches executed (Count)
system.cpu.numStoreInsts                     21889828                       # Number of stores executed (Count)
system.cpu.numRate                           2.911456                       # Inst execution rate ((Count/Cycle))
system.cpu.timesIdled                             208                       # Number of times that the entire CPU went into an idle state and unscheduled itself (Count)
system.cpu.idleCycles                           18822                       # Total number of cycles that the CPU has spent unscheduled due to idling (Cycle)
system.cpu.committedInsts                   200000005                       # Number of Instructions Simulated (Count)
system.cpu.committedOps                     235916942                       # Number of Ops (including micro ops) Simulated (Count)
system.cpu.cpi                               0.419442                       # CPI: Cycles Per Instruction ((Cycle/Count))
system.cpu.totalCpi                          0.419442                       # CPI: Total CPI of All Threads ((Cycle/Count))
system.cpu.ipc                               2.384119                       # IPC: Instructions Per Cycle ((Count/Cycle))
system.cpu.totalIpc                          2.384119                       # IPC: Total IPC of All Threads ((Count/Cycle))
system.cpu.intRegfileReads                  314514517                       # Number of integer regfile reads (Count)
system.cpu.intRegfileWrites                 191230841                       # Number of integer regfile writes (Count)
system.cpu.vecRegfileReads                         32                       # number of vector regfile reads (Count)
system.cpu.ccRegfileReads                   798010887                       # number of cc regfile reads (Count)
system.cpu.ccRegfileWrites                   96338034                       # number of cc regfile writes (Count)
system.cpu.miscRegfileReads                  42871417                       # number of misc regfile reads (Count)
system.cpu.miscRegfileWrites                      165                       # number of misc regfile writes (Count)
system.cpu.MemDepUnit__0.insertedLoads       21186196                       # Number of loads inserted to the mem dependence unit. (Count)
system.cpu.MemDepUnit__0.insertedStores      22391484                       # Number of stores inserted to the mem dependence unit. (Count)
system.cpu.MemDepUnit__0.conflictingLoads      5526359                       # Number of conflicting loads. (Count)
system.cpu.MemDepUnit__0.conflictingStores      6347702                       # Number of conflicting stores. (Count)
system.cpu.MemDepUnit__1.insertedLoads              0                       # Number of loads inserted to the mem dependence unit. (Count)
system.cpu.MemDepUnit__1.insertedStores             0                       # Number of stores inserted to the mem dependence unit. (Count)
system.cpu.MemDepUnit__1.conflictingLoads            0                       # Number of conflicting loads. (Count)
system.cpu.MemDepUnit__1.conflictingStores            0                       # Number of conflicting stores. (Count)
system.cpu.MemDepUnit__2.insertedLoads              0                       # Number of loads inserted to the mem dependence unit. (Count)
system.cpu.MemDepUnit__2.insertedStores             0                       # Number of stores inserted to the mem dependence unit. (Count)
system.cpu.MemDepUnit__2.conflictingLoads            0                       # Number of conflicting loads. (Count)
system.cpu.MemDepUnit__2.conflictingStores            0                       # Number of conflicting stores. (Count)
system.cpu.MemDepUnit__3.insertedLoads              0                       # Number of loads inserted to the mem dependence unit. (Count)
system.cpu.MemDepUnit__3.insertedStores             0                       # Number of stores inserted to the mem dependence unit. (Count)
system.cpu.MemDepUnit__3.conflictingLoads            0                       # Number of conflicting loads. (Count)
system.cpu.MemDepUnit__3.conflictingStores            0                       # Number of conflicting stores. (Count)
system.cpu.branchPred.lookups                29372010                       # Number of BP lookups (Count)
system.cpu.branchPred.condPredicted          19197736                       # Number of conditional branches predicted (Count)
system.cpu.branchPred.condIncorrect            103185                       # Number of conditional branches incorrect (Count)
system.cpu.branchPred.BTBLookups             15460147                       # Number of BTB lookups (Count)
system.cpu.branchPred.BTBHits                15447407                       # Number of BTB hits (Count)
system.cpu.branchPred.BTBHitRatio            0.999176                       # BTB Hit Ratio (Ratio)
system.cpu.branchPred.RASUsed                 5694579                       # Number of times the RAS was used to get a target. (Count)
system.cpu.branchPred.RASIncorrect               8225                       # Number of incorrect RAS predictions. (Count)
system.cpu.branchPred.indirectLookups             174                       # Number of indirect predictor lookups. (Count)
system.cpu.branchPred.indirectHits                 29                       # Number of indirect target hits. (Count)
system.cpu.branchPred.indirectMisses              145                       # Number of indirect misses. (Count)
system.cpu.branchPred.indirectMispredicted           56                       # Number of mispredicted indirect branches. (Count)
system.cpu.commit.commitSquashedInsts         7223024                       # The number of squashed insts skipped by commit (Count)
system.cpu.commit.commitNonSpecStalls              96                       # The number of times commit has been forced to stall to communicate backwards (Count)
system.cpu.commit.branchMispredicts            103006                       # The number of times a branch was mispredicted (Count)
system.cpu.commit.numCommittedDist::samples     82921367                       # Number of insts commited each cycle (Count)
system.cpu.commit.numCommittedDist::mean     2.845068                       # Number of insts commited each cycle (Count)
system.cpu.commit.numCommittedDist::stdev     2.934929                       # Number of insts commited each cycle (Count)
system.cpu.commit.numCommittedDist::underflows            0      0.00%      0.00% # Number of insts commited each cycle (Count)
system.cpu.commit.numCommittedDist::0        23560282     28.41%     28.41% # Number of insts commited each cycle (Count)
system.cpu.commit.numCommittedDist::1        17824543     21.50%     49.91% # Number of insts commited each cycle (Count)
system.cpu.commit.numCommittedDist::2         4786200      5.77%     55.68% # Number of insts commited each cycle (Count)
system.cpu.commit.numCommittedDist::3         9500181     11.46%     67.14% # Number of insts commited each cycle (Count)
system.cpu.commit.numCommittedDist::4         5918852      7.14%     74.28% # Number of insts commited each cycle (Count)
system.cpu.commit.numCommittedDist::5         1800316      2.17%     76.45% # Number of insts commited each cycle (Count)
system.cpu.commit.numCommittedDist::6         3443201      4.15%     80.60% # Number of insts commited each cycle (Count)
system.cpu.commit.numCommittedDist::7         2019074      2.43%     83.03% # Number of insts commited each cycle (Count)
system.cpu.commit.numCommittedDist::8        14068718     16.97%    100.00% # Number of insts commited each cycle (Count)
system.cpu.commit.numCommittedDist::overflows            0      0.00%    100.00% # Number of insts commited each cycle (Count)
system.cpu.commit.numCommittedDist::min_value            0                       # Number of insts commited each cycle (Count)
system.cpu.commit.numCommittedDist::max_value            8                       # Number of insts commited each cycle (Count)
system.cpu.commit.numCommittedDist::total     82921367                       # Number of insts commited each cycle (Count)
system.cpu.commit.instsCommitted            200000005                       # Number of instructions committed (Count)
system.cpu.commit.opsCommitted              235916942                       # Number of ops (including micro ops) committed (Count)
system.cpu.commit.memRefs                    42462552                       # Number of memory references committed (Count)
system.cpu.commit.loads                      20689969                       # Number of loads committed (Count)
system.cpu.commit.amos                              0                       # Number of atomic instructions committed (Count)
system.cpu.commit.membars                          42                       # Number of memory barriers committed (Count)
system.cpu.commit.branches                   28265802                       # Number of branches committed (Count)
system.cpu.commit.vectorInstructions                0                       # Number of committed Vector instructions. (Count)
system.cpu.commit.floating                          0                       # Number of committed floating point instructions. (Count)
system.cpu.commit.integer                   223982194                       # Number of committed integer instructions. (Count)
system.cpu.commit.functionCalls               7622556                       # Number of function calls committed. (Count)
system.cpu.commit.committedInstType_0::No_OpClass            0      0.00%      0.00% # Class of committed instruction (Count)
system.cpu.commit.committedInstType_0::IntAlu    189218445     80.21%     80.21% # Class of committed instruction (Count)
system.cpu.commit.committedInstType_0::IntMult      4235945      1.80%     82.00% # Class of committed instruction (Count)
system.cpu.commit.committedInstType_0::IntDiv            0      0.00%     82.00% # Class of committed instruction (Count)
system.cpu.commit.committedInstType_0::FloatAdd            0      0.00%     82.00% # Class of committed instruction (Count)
system.cpu.commit.committedInstType_0::FloatCmp            0      0.00%     82.00% # Class of committed instruction (Count)
system.cpu.commit.committedInstType_0::FloatCvt            0      0.00%     82.00% # Class of committed instruction (Count)
system.cpu.commit.committedInstType_0::FloatMult            0      0.00%     82.00% # Class of committed instruction (Count)
system.cpu.commit.committedInstType_0::FloatMultAcc            0      0.00%     82.00% # Class of committed instruction (Count)
system.cpu.commit.committedInstType_0::FloatDiv            0      0.00%     82.00% # Class of committed instruction (Count)
system.cpu.commit.committedInstType_0::FloatMisc            0      0.00%     82.00% # Class of committed instruction (Count)
system.cpu.commit.committedInstType_0::FloatSqrt            0      0.00%     82.00% # Class of committed instruction (Count)
system.cpu.commit.committedInstType_0::SimdAdd            0      0.00%     82.00% # Class of committed instruction (Count)
system.cpu.commit.committedInstType_0::SimdAddAcc            0      0.00%     82.00% # Class of committed instruction (Count)
system.cpu.commit.committedInstType_0::SimdAlu            0      0.00%     82.00% # Class of committed instruction (Count)
system.cpu.commit.committedInstType_0::SimdCmp            0      0.00%     82.00% # Class of committed instruction (Count)
system.cpu.commit.committedInstType_0::SimdCvt            0      0.00%     82.00% # Class of committed instruction (Count)
system.cpu.commit.committedInstType_0::SimdMisc            0      0.00%     82.00% # Class of committed instruction (Count)
system.cpu.commit.committedInstType_0::SimdMult            0      0.00%     82.00% # Class of committed instruction (Count)
system.cpu.commit.committedInstType_0::SimdMultAcc            0      0.00%     82.00% # Class of committed instruction (Count)
system.cpu.commit.committedInstType_0::SimdShift            0      0.00%     82.00% # Class of committed instruction (Count)
system.cpu.commit.committedInstType_0::SimdShiftAcc            0      0.00%     82.00% # Class of committed instruction (Count)
system.cpu.commit.committedInstType_0::SimdDiv            0      0.00%     82.00% # Class of committed instruction (Count)
system.cpu.commit.committedInstType_0::SimdSqrt            0      0.00%     82.00% # Class of committed instruction (Count)
system.cpu.commit.committedInstType_0::SimdFloatAdd            0      0.00%     82.00% # Class of committed instruction (Count)
system.cpu.commit.committedInstType_0::SimdFloatAlu            0      0.00%     82.00% # Class of committed instruction (Count)
system.cpu.commit.committedInstType_0::SimdFloatCmp            0      0.00%     82.00% # Class of committed instruction (Count)
system.cpu.commit.committedInstType_0::SimdFloatCvt            0      0.00%     82.00% # Class of committed instruction (Count)
system.cpu.commit.committedInstType_0::SimdFloatDiv            0      0.00%     82.00% # Class of committed instruction (Count)
system.cpu.commit.committedInstType_0::SimdFloatMisc            0      0.00%     82.00% # Class of committed instruction (Count)
system.cpu.commit.committedInstType_0::SimdFloatMult            0      0.00%     82.00% # Class of committed instruction (Count)
system.cpu.commit.committedInstType_0::SimdFloatMultAcc            0      0.00%     82.00% # Class of committed instruction (Count)
system.cpu.commit.committedInstType_0::SimdFloatSqrt            0      0.00%     82.00% # Class of committed instruction (Count)
system.cpu.commit.committedInstType_0::SimdReduceAdd            0      0.00%     82.00% # Class of committed instruction (Count)
system.cpu.commit.committedInstType_0::SimdReduceAlu            0      0.00%     82.00% # Class of committed instruction (Count)
system.cpu.commit.committedInstType_0::SimdReduceCmp            0      0.00%     82.00% # Class of committed instruction (Count)
system.cpu.commit.committedInstType_0::SimdFloatReduceAdd            0      0.00%     82.00% # Class of committed instruction (Count)
system.cpu.commit.committedInstType_0::SimdFloatReduceCmp            0      0.00%     82.00% # Class of committed instruction (Count)
system.cpu.commit.committedInstType_0::SimdAes            0      0.00%     82.00% # Class of committed instruction (Count)
system.cpu.commit.committedInstType_0::SimdAesMix            0      0.00%     82.00% # Class of committed instruction (Count)
system.cpu.commit.committedInstType_0::SimdSha1Hash            0      0.00%     82.00% # Class of committed instruction (Count)
system.cpu.commit.committedInstType_0::SimdSha1Hash2            0      0.00%     82.00% # Class of committed instruction (Count)
system.cpu.commit.committedInstType_0::SimdSha256Hash            0      0.00%     82.00% # Class of committed instruction (Count)
system.cpu.commit.committedInstType_0::SimdSha256Hash2            0      0.00%     82.00% # Class of committed instruction (Count)
system.cpu.commit.committedInstType_0::SimdShaSigma2            0      0.00%     82.00% # Class of committed instruction (Count)
system.cpu.commit.committedInstType_0::SimdShaSigma3            0      0.00%     82.00% # Class of committed instruction (Count)
system.cpu.commit.committedInstType_0::SimdPredAlu            0      0.00%     82.00% # Class of committed instruction (Count)
system.cpu.commit.committedInstType_0::MemRead     20689969      8.77%     90.77% # Class of committed instruction (Count)
system.cpu.commit.committedInstType_0::MemWrite     21772583      9.23%    100.00% # Class of committed instruction (Count)
system.cpu.commit.committedInstType_0::FloatMemRead            0      0.00%    100.00% # Class of committed instruction (Count)
system.cpu.commit.committedInstType_0::FloatMemWrite            0      0.00%    100.00% # Class of committed instruction (Count)
system.cpu.commit.committedInstType_0::IprAccess            0      0.00%    100.00% # Class of committed instruction (Count)
system.cpu.commit.committedInstType_0::InstPrefetch            0      0.00%    100.00% # Class of committed instruction (Count)
system.cpu.commit.committedInstType_0::total    235916942                       # Class of committed instruction (Count)
system.cpu.commit.commitEligibleSamples      14068718                       # number cycles where commit BW limit reached (Cycle)
system.cpu.dcache.demandHits::cpu.data       38068553                       # number of demand (read+write) hits (Count)
system.cpu.dcache.demandHits::total          38068553                       # number of demand (read+write) hits (Count)
system.cpu.dcache.overallHits::cpu.data      38068553                       # number of overall hits (Count)
system.cpu.dcache.overallHits::total         38068553                       # number of overall hits (Count)
system.cpu.dcache.demandMisses::cpu.data       544997                       # number of demand (read+write) misses (Count)
system.cpu.dcache.demandMisses::total          544997                       # number of demand (read+write) misses (Count)
system.cpu.dcache.overallMisses::cpu.data       544997                       # number of overall misses (Count)
system.cpu.dcache.overallMisses::total         544997                       # number of overall misses (Count)
system.cpu.dcache.demandMissLatency::cpu.data  32986146499                       # number of demand (read+write) miss ticks (Tick)
system.cpu.dcache.demandMissLatency::total  32986146499                       # number of demand (read+write) miss ticks (Tick)
system.cpu.dcache.overallMissLatency::cpu.data  32986146499                       # number of overall miss ticks (Tick)
system.cpu.dcache.overallMissLatency::total  32986146499                       # number of overall miss ticks (Tick)
system.cpu.dcache.demandAccesses::cpu.data     38613550                       # number of demand (read+write) accesses (Count)
system.cpu.dcache.demandAccesses::total      38613550                       # number of demand (read+write) accesses (Count)
system.cpu.dcache.overallAccesses::cpu.data     38613550                       # number of overall (read+write) accesses (Count)
system.cpu.dcache.overallAccesses::total     38613550                       # number of overall (read+write) accesses (Count)
system.cpu.dcache.demandMissRate::cpu.data     0.014114                       # miss rate for demand accesses (Ratio)
system.cpu.dcache.demandMissRate::total      0.014114                       # miss rate for demand accesses (Ratio)
system.cpu.dcache.overallMissRate::cpu.data     0.014114                       # miss rate for overall accesses (Ratio)
system.cpu.dcache.overallMissRate::total     0.014114                       # miss rate for overall accesses (Ratio)
system.cpu.dcache.demandAvgMissLatency::cpu.data 60525.372615                       # average overall miss latency in ticks ((Tick/Count))
system.cpu.dcache.demandAvgMissLatency::total 60525.372615                       # average overall miss latency in ticks ((Tick/Count))
system.cpu.dcache.overallAvgMissLatency::cpu.data 60525.372615                       # average overall miss latency ((Tick/Count))
system.cpu.dcache.overallAvgMissLatency::total 60525.372615                       # average overall miss latency ((Tick/Count))
system.cpu.dcache.blockedCycles::no_mshrs          315                       # number of cycles access was blocked (Cycle)
system.cpu.dcache.blockedCycles::no_targets            0                       # number of cycles access was blocked (Cycle)
system.cpu.dcache.blockedCauses::no_mshrs           10                       # number of times access was blocked (Count)
system.cpu.dcache.blockedCauses::no_targets            0                       # number of times access was blocked (Count)
system.cpu.dcache.avgBlocked::no_mshrs      31.500000                       # average number of cycles each access was blocked ((Cycle/Count))
system.cpu.dcache.avgBlocked::no_targets          nan                       # average number of cycles each access was blocked ((Cycle/Count))
system.cpu.dcache.writebacks::writebacks       135674                       # number of writebacks (Count)
system.cpu.dcache.writebacks::total            135674                       # number of writebacks (Count)
system.cpu.dcache.demandMshrHits::cpu.data       408724                       # number of demand (read+write) MSHR hits (Count)
system.cpu.dcache.demandMshrHits::total        408724                       # number of demand (read+write) MSHR hits (Count)
system.cpu.dcache.overallMshrHits::cpu.data       408724                       # number of overall MSHR hits (Count)
system.cpu.dcache.overallMshrHits::total       408724                       # number of overall MSHR hits (Count)
system.cpu.dcache.demandMshrMisses::cpu.data       136273                       # number of demand (read+write) MSHR misses (Count)
system.cpu.dcache.demandMshrMisses::total       136273                       # number of demand (read+write) MSHR misses (Count)
system.cpu.dcache.overallMshrMisses::cpu.data       136273                       # number of overall MSHR misses (Count)
system.cpu.dcache.overallMshrMisses::total       136273                       # number of overall MSHR misses (Count)
system.cpu.dcache.demandMshrMissLatency::cpu.data  10292330499                       # number of demand (read+write) MSHR miss ticks (Tick)
system.cpu.dcache.demandMshrMissLatency::total  10292330499                       # number of demand (read+write) MSHR miss ticks (Tick)
system.cpu.dcache.overallMshrMissLatency::cpu.data  10292330499                       # number of overall MSHR miss ticks (Tick)
system.cpu.dcache.overallMshrMissLatency::total  10292330499                       # number of overall MSHR miss ticks (Tick)
system.cpu.dcache.demandMshrMissRate::cpu.data     0.003529                       # mshr miss ratio for demand accesses (Ratio)
system.cpu.dcache.demandMshrMissRate::total     0.003529                       # mshr miss ratio for demand accesses (Ratio)
system.cpu.dcache.overallMshrMissRate::cpu.data     0.003529                       # mshr miss ratio for overall accesses (Ratio)
system.cpu.dcache.overallMshrMissRate::total     0.003529                       # mshr miss ratio for overall accesses (Ratio)
system.cpu.dcache.demandAvgMshrMissLatency::cpu.data 75527.290799                       # average overall mshr miss latency ((Tick/Count))
system.cpu.dcache.demandAvgMshrMissLatency::total 75527.290799                       # average overall mshr miss latency ((Tick/Count))
system.cpu.dcache.overallAvgMshrMissLatency::cpu.data 75527.290799                       # average overall mshr miss latency ((Tick/Count))
system.cpu.dcache.overallAvgMshrMissLatency::total 75527.290799                       # average overall mshr miss latency ((Tick/Count))
system.cpu.dcache.replacements                 135761                       # number of replacements (Count)
system.cpu.dcache.LoadLockedReq.hits::cpu.data           43                       # number of LoadLockedReq hits (Count)
system.cpu.dcache.LoadLockedReq.hits::total           43                       # number of LoadLockedReq hits (Count)
system.cpu.dcache.LoadLockedReq.misses::cpu.data            3                       # number of LoadLockedReq misses (Count)
system.cpu.dcache.LoadLockedReq.misses::total            3                       # number of LoadLockedReq misses (Count)
system.cpu.dcache.LoadLockedReq.missLatency::cpu.data       135500                       # number of LoadLockedReq miss ticks (Tick)
system.cpu.dcache.LoadLockedReq.missLatency::total       135500                       # number of LoadLockedReq miss ticks (Tick)
system.cpu.dcache.LoadLockedReq.accesses::cpu.data           46                       # number of LoadLockedReq accesses(hits+misses) (Count)
system.cpu.dcache.LoadLockedReq.accesses::total           46                       # number of LoadLockedReq accesses(hits+misses) (Count)
system.cpu.dcache.LoadLockedReq.missRate::cpu.data     0.065217                       # miss rate for LoadLockedReq accesses (Ratio)
system.cpu.dcache.LoadLockedReq.missRate::total     0.065217                       # miss rate for LoadLockedReq accesses (Ratio)
system.cpu.dcache.LoadLockedReq.avgMissLatency::cpu.data 45166.666667                       # average LoadLockedReq miss latency ((Tick/Count))
system.cpu.dcache.LoadLockedReq.avgMissLatency::total 45166.666667                       # average LoadLockedReq miss latency ((Tick/Count))
system.cpu.dcache.LoadLockedReq.mshrHits::cpu.data            3                       # number of LoadLockedReq MSHR hits (Count)
system.cpu.dcache.LoadLockedReq.mshrHits::total            3                       # number of LoadLockedReq MSHR hits (Count)
system.cpu.dcache.ReadReq.hits::cpu.data     16840813                       # number of ReadReq hits (Count)
system.cpu.dcache.ReadReq.hits::total        16840813                       # number of ReadReq hits (Count)
system.cpu.dcache.ReadReq.misses::cpu.data          212                       # number of ReadReq misses (Count)
system.cpu.dcache.ReadReq.misses::total           212                       # number of ReadReq misses (Count)
system.cpu.dcache.ReadReq.missLatency::cpu.data     13424000                       # number of ReadReq miss ticks (Tick)
system.cpu.dcache.ReadReq.missLatency::total     13424000                       # number of ReadReq miss ticks (Tick)
system.cpu.dcache.ReadReq.accesses::cpu.data     16841025                       # number of ReadReq accesses(hits+misses) (Count)
system.cpu.dcache.ReadReq.accesses::total     16841025                       # number of ReadReq accesses(hits+misses) (Count)
system.cpu.dcache.ReadReq.missRate::cpu.data     0.000013                       # miss rate for ReadReq accesses (Ratio)
system.cpu.dcache.ReadReq.missRate::total     0.000013                       # miss rate for ReadReq accesses (Ratio)
system.cpu.dcache.ReadReq.avgMissLatency::cpu.data 63320.754717                       # average ReadReq miss latency ((Tick/Count))
system.cpu.dcache.ReadReq.avgMissLatency::total 63320.754717                       # average ReadReq miss latency ((Tick/Count))
system.cpu.dcache.ReadReq.mshrHits::cpu.data          107                       # number of ReadReq MSHR hits (Count)
system.cpu.dcache.ReadReq.mshrHits::total          107                       # number of ReadReq MSHR hits (Count)
system.cpu.dcache.ReadReq.mshrMisses::cpu.data          105                       # number of ReadReq MSHR misses (Count)
system.cpu.dcache.ReadReq.mshrMisses::total          105                       # number of ReadReq MSHR misses (Count)
system.cpu.dcache.ReadReq.mshrMissLatency::cpu.data      7462000                       # number of ReadReq MSHR miss ticks (Tick)
system.cpu.dcache.ReadReq.mshrMissLatency::total      7462000                       # number of ReadReq MSHR miss ticks (Tick)
system.cpu.dcache.ReadReq.mshrMissRate::cpu.data     0.000006                       # mshr miss rate for ReadReq accesses (Ratio)
system.cpu.dcache.ReadReq.mshrMissRate::total     0.000006                       # mshr miss rate for ReadReq accesses (Ratio)
system.cpu.dcache.ReadReq.avgMshrMissLatency::cpu.data 71066.666667                       # average ReadReq mshr miss latency ((Tick/Count))
system.cpu.dcache.ReadReq.avgMshrMissLatency::total 71066.666667                       # average ReadReq mshr miss latency ((Tick/Count))
system.cpu.dcache.StoreCondReq.hits::cpu.data           41                       # number of StoreCondReq hits (Count)
system.cpu.dcache.StoreCondReq.hits::total           41                       # number of StoreCondReq hits (Count)
system.cpu.dcache.StoreCondReq.accesses::cpu.data           41                       # number of StoreCondReq accesses(hits+misses) (Count)
system.cpu.dcache.StoreCondReq.accesses::total           41                       # number of StoreCondReq accesses(hits+misses) (Count)
system.cpu.dcache.WriteReq.hits::cpu.data     21227740                       # number of WriteReq hits (Count)
system.cpu.dcache.WriteReq.hits::total       21227740                       # number of WriteReq hits (Count)
system.cpu.dcache.WriteReq.misses::cpu.data       544785                       # number of WriteReq misses (Count)
system.cpu.dcache.WriteReq.misses::total       544785                       # number of WriteReq misses (Count)
system.cpu.dcache.WriteReq.missLatency::cpu.data  32972722499                       # number of WriteReq miss ticks (Tick)
system.cpu.dcache.WriteReq.missLatency::total  32972722499                       # number of WriteReq miss ticks (Tick)
system.cpu.dcache.WriteReq.accesses::cpu.data     21772525                       # number of WriteReq accesses(hits+misses) (Count)
system.cpu.dcache.WriteReq.accesses::total     21772525                       # number of WriteReq accesses(hits+misses) (Count)
system.cpu.dcache.WriteReq.missRate::cpu.data     0.025022                       # miss rate for WriteReq accesses (Ratio)
system.cpu.dcache.WriteReq.missRate::total     0.025022                       # miss rate for WriteReq accesses (Ratio)
system.cpu.dcache.WriteReq.avgMissLatency::cpu.data 60524.284808                       # average WriteReq miss latency ((Tick/Count))
system.cpu.dcache.WriteReq.avgMissLatency::total 60524.284808                       # average WriteReq miss latency ((Tick/Count))
system.cpu.dcache.WriteReq.mshrHits::cpu.data       408617                       # number of WriteReq MSHR hits (Count)
system.cpu.dcache.WriteReq.mshrHits::total       408617                       # number of WriteReq MSHR hits (Count)
system.cpu.dcache.WriteReq.mshrMisses::cpu.data       136168                       # number of WriteReq MSHR misses (Count)
system.cpu.dcache.WriteReq.mshrMisses::total       136168                       # number of WriteReq MSHR misses (Count)
system.cpu.dcache.WriteReq.mshrMissLatency::cpu.data  10284868499                       # number of WriteReq MSHR miss ticks (Tick)
system.cpu.dcache.WriteReq.mshrMissLatency::total  10284868499                       # number of WriteReq MSHR miss ticks (Tick)
system.cpu.dcache.WriteReq.mshrMissRate::cpu.data     0.006254                       # mshr miss rate for WriteReq accesses (Ratio)
system.cpu.dcache.WriteReq.mshrMissRate::total     0.006254                       # mshr miss rate for WriteReq accesses (Ratio)
system.cpu.dcache.WriteReq.avgMshrMissLatency::cpu.data 75530.730414                       # average WriteReq mshr miss latency ((Tick/Count))
system.cpu.dcache.WriteReq.avgMshrMissLatency::total 75530.730414                       # average WriteReq mshr miss latency ((Tick/Count))
system.cpu.dcache.power_state.pwrStateResidencyTicks::UNDEFINED  41944208500                       # Cumulative time (in ticks) in various power states (Tick)
system.cpu.dcache.tags.tagsInUse           510.987770                       # Average ticks per tags in use ((Tick/Count))
system.cpu.dcache.tags.totalRefs             38204910                       # Total number of references to valid blocks. (Count)
system.cpu.dcache.tags.sampledRefs             136273                       # Sample count of references to valid blocks. (Count)
system.cpu.dcache.tags.avgRefs             280.355683                       # Average number of references to valid blocks. ((Count/Count))
system.cpu.dcache.tags.warmupTick              148500                       # The tick when the warmup percentage was hit. (Tick)
system.cpu.dcache.tags.occupancies::cpu.data   510.987770                       # Average occupied blocks per tick, per requestor ((Count/Tick))
system.cpu.dcache.tags.avgOccs::cpu.data     0.998023                       # Average percentage of cache occupancy ((Ratio/Tick))
system.cpu.dcache.tags.avgOccs::total        0.998023                       # Average percentage of cache occupancy ((Ratio/Tick))
system.cpu.dcache.tags.occupanciesTaskId::1024          512                       # Occupied blocks per task id (Count)
system.cpu.dcache.tags.ageTaskId_1024::0           33                       # Occupied blocks per task id, per block age (Count)
system.cpu.dcache.tags.ageTaskId_1024::1          301                       # Occupied blocks per task id, per block age (Count)
system.cpu.dcache.tags.ageTaskId_1024::2          176                       # Occupied blocks per task id, per block age (Count)
system.cpu.dcache.tags.ageTaskId_1024::4            2                       # Occupied blocks per task id, per block age (Count)
system.cpu.dcache.tags.ratioOccsTaskId::1024            1                       # Ratio of occupied blocks and all blocks, per task id (Ratio)
system.cpu.dcache.tags.tagAccesses           77363547                       # Number of tag accesses (Count)
system.cpu.dcache.tags.dataAccesses          77363547                       # Number of data accesses (Count)
system.cpu.dcache.tags.power_state.pwrStateResidencyTicks::UNDEFINED  41944208500                       # Cumulative time (in ticks) in various power states (Tick)
system.cpu.decode.idleCycles                 23451534                       # Number of cycles decode is idle (Cycle)
system.cpu.decode.blockedCycles              19479089                       # Number of cycles decode is blocked (Cycle)
system.cpu.decode.runCycles                  38244768                       # Number of cycles decode is running (Cycle)
system.cpu.decode.unblockCycles               2588280                       # Number of cycles decode is unblocking (Cycle)
system.cpu.decode.squashCycles                 105925                       # Number of cycles decode is squashing (Cycle)
system.cpu.decode.branchResolved             15385551                       # Number of times decode resolved a branch (Count)
system.cpu.decode.branchMispred                   285                       # Number of times decode detected a branch misprediction (Count)
system.cpu.decode.decodedInsts              243695560                       # Number of instructions handled by decode (Count)
system.cpu.decode.squashedInsts                   628                       # Number of squashed instructions handled by decode (Count)
system.cpu.fetch.icacheStallCycles           29628519                       # Number of cycles fetch is stalled on an Icache miss (Cycle)
system.cpu.fetch.insts                      207723261                       # Number of instructions fetch has processed (Count)
system.cpu.fetch.branches                    29372010                       # Number of branches that fetch encountered (Count)
system.cpu.fetch.predictedBranches           21142015                       # Number of branches that fetch has predicted taken (Count)
system.cpu.fetch.cycles                      54134776                       # Number of cycles fetch has run and was not squashing or blocked (Cycle)
system.cpu.fetch.squashCycles                  212214                       # Number of cycles fetch has spent squashing (Cycle)
system.cpu.fetch.miscStallCycles                  106                       # Number of cycles fetch has spent waiting on interrupts, or bad addresses, or out of MSHRs (Cycle)
system.cpu.fetch.pendingTrapStallCycles            27                       # Number of stall cycles due to pending traps (Cycle)
system.cpu.fetch.icacheWaitRetryStallCycles           61                       # Number of stall cycles due to full MSHR (Cycle)
system.cpu.fetch.cacheLines                  29604655                       # Number of cache lines fetched (Count)
system.cpu.fetch.icacheSquashes                 88120                       # Number of outstanding Icache misses that were squashed (Count)
system.cpu.fetch.nisnDist::samples           83869596                       # Number of instructions fetched each cycle (Total) (Count)
system.cpu.fetch.nisnDist::mean              2.922315                       # Number of instructions fetched each cycle (Total) (Count)
system.cpu.fetch.nisnDist::stdev             3.336461                       # Number of instructions fetched each cycle (Total) (Count)
system.cpu.fetch.nisnDist::underflows               0      0.00%      0.00% # Number of instructions fetched each cycle (Total) (Count)
system.cpu.fetch.nisnDist::0                 40689896     48.52%     48.52% # Number of instructions fetched each cycle (Total) (Count)
system.cpu.fetch.nisnDist::1                  2582212      3.08%     51.59% # Number of instructions fetched each cycle (Total) (Count)
system.cpu.fetch.nisnDist::2                  2320185      2.77%     54.36% # Number of instructions fetched each cycle (Total) (Count)
system.cpu.fetch.nisnDist::3                  7765268      9.26%     63.62% # Number of instructions fetched each cycle (Total) (Count)
system.cpu.fetch.nisnDist::4                  2250197      2.68%     66.30% # Number of instructions fetched each cycle (Total) (Count)
system.cpu.fetch.nisnDist::5                  4539931      5.41%     71.72% # Number of instructions fetched each cycle (Total) (Count)
system.cpu.fetch.nisnDist::6                  1965367      2.34%     74.06% # Number of instructions fetched each cycle (Total) (Count)
system.cpu.fetch.nisnDist::7                  2969974      3.54%     77.60% # Number of instructions fetched each cycle (Total) (Count)
system.cpu.fetch.nisnDist::8                 18786566     22.40%    100.00% # Number of instructions fetched each cycle (Total) (Count)
system.cpu.fetch.nisnDist::overflows                0      0.00%    100.00% # Number of instructions fetched each cycle (Total) (Count)
system.cpu.fetch.nisnDist::min_value                0                       # Number of instructions fetched each cycle (Total) (Count)
system.cpu.fetch.nisnDist::max_value                8                       # Number of instructions fetched each cycle (Total) (Count)
system.cpu.fetch.nisnDist::total             83869596                       # Number of instructions fetched each cycle (Total) (Count)
system.cpu.fetch.branchRate                  0.350132                       # Number of branch fetches per cycle (Ratio)
system.cpu.fetch.rate                        2.476185                       # Number of inst fetches per cycle ((Count/Cycle))
system.cpu.icache.demandHits::cpu.inst       29604174                       # number of demand (read+write) hits (Count)
system.cpu.icache.demandHits::total          29604174                       # number of demand (read+write) hits (Count)
system.cpu.icache.overallHits::cpu.inst      29604174                       # number of overall hits (Count)
system.cpu.icache.overallHits::total         29604174                       # number of overall hits (Count)
system.cpu.icache.demandMisses::cpu.inst          477                       # number of demand (read+write) misses (Count)
system.cpu.icache.demandMisses::total             477                       # number of demand (read+write) misses (Count)
system.cpu.icache.overallMisses::cpu.inst          477                       # number of overall misses (Count)
system.cpu.icache.overallMisses::total            477                       # number of overall misses (Count)
system.cpu.icache.demandMissLatency::cpu.inst     29887000                       # number of demand (read+write) miss ticks (Tick)
system.cpu.icache.demandMissLatency::total     29887000                       # number of demand (read+write) miss ticks (Tick)
system.cpu.icache.overallMissLatency::cpu.inst     29887000                       # number of overall miss ticks (Tick)
system.cpu.icache.overallMissLatency::total     29887000                       # number of overall miss ticks (Tick)
system.cpu.icache.demandAccesses::cpu.inst     29604651                       # number of demand (read+write) accesses (Count)
system.cpu.icache.demandAccesses::total      29604651                       # number of demand (read+write) accesses (Count)
system.cpu.icache.overallAccesses::cpu.inst     29604651                       # number of overall (read+write) accesses (Count)
system.cpu.icache.overallAccesses::total     29604651                       # number of overall (read+write) accesses (Count)
system.cpu.icache.demandMissRate::cpu.inst     0.000016                       # miss rate for demand accesses (Ratio)
system.cpu.icache.demandMissRate::total      0.000016                       # miss rate for demand accesses (Ratio)
system.cpu.icache.overallMissRate::cpu.inst     0.000016                       # miss rate for overall accesses (Ratio)
system.cpu.icache.overallMissRate::total     0.000016                       # miss rate for overall accesses (Ratio)
system.cpu.icache.demandAvgMissLatency::cpu.inst 62656.184486                       # average overall miss latency in ticks ((Tick/Count))
system.cpu.icache.demandAvgMissLatency::total 62656.184486                       # average overall miss latency in ticks ((Tick/Count))
system.cpu.icache.overallAvgMissLatency::cpu.inst 62656.184486                       # average overall miss latency ((Tick/Count))
system.cpu.icache.overallAvgMissLatency::total 62656.184486                       # average overall miss latency ((Tick/Count))
system.cpu.icache.blockedCycles::no_mshrs          320                       # number of cycles access was blocked (Cycle)
system.cpu.icache.blockedCycles::no_targets            0                       # number of cycles access was blocked (Cycle)
system.cpu.icache.blockedCauses::no_mshrs           13                       # number of times access was blocked (Count)
system.cpu.icache.blockedCauses::no_targets            0                       # number of times access was blocked (Count)
system.cpu.icache.avgBlocked::no_mshrs      24.615385                       # average number of cycles each access was blocked ((Cycle/Count))
system.cpu.icache.avgBlocked::no_targets          nan                       # average number of cycles each access was blocked ((Cycle/Count))
system.cpu.icache.demandMshrHits::cpu.inst          124                       # number of demand (read+write) MSHR hits (Count)
system.cpu.icache.demandMshrHits::total           124                       # number of demand (read+write) MSHR hits (Count)
system.cpu.icache.overallMshrHits::cpu.inst          124                       # number of overall MSHR hits (Count)
system.cpu.icache.overallMshrHits::total          124                       # number of overall MSHR hits (Count)
system.cpu.icache.demandMshrMisses::cpu.inst          353                       # number of demand (read+write) MSHR misses (Count)
system.cpu.icache.demandMshrMisses::total          353                       # number of demand (read+write) MSHR misses (Count)
system.cpu.icache.overallMshrMisses::cpu.inst          353                       # number of overall MSHR misses (Count)
system.cpu.icache.overallMshrMisses::total          353                       # number of overall MSHR misses (Count)
system.cpu.icache.demandMshrMissLatency::cpu.inst     23517500                       # number of demand (read+write) MSHR miss ticks (Tick)
system.cpu.icache.demandMshrMissLatency::total     23517500                       # number of demand (read+write) MSHR miss ticks (Tick)
system.cpu.icache.overallMshrMissLatency::cpu.inst     23517500                       # number of overall MSHR miss ticks (Tick)
system.cpu.icache.overallMshrMissLatency::total     23517500                       # number of overall MSHR miss ticks (Tick)
system.cpu.icache.demandMshrMissRate::cpu.inst     0.000012                       # mshr miss ratio for demand accesses (Ratio)
system.cpu.icache.demandMshrMissRate::total     0.000012                       # mshr miss ratio for demand accesses (Ratio)
system.cpu.icache.overallMshrMissRate::cpu.inst     0.000012                       # mshr miss ratio for overall accesses (Ratio)
system.cpu.icache.overallMshrMissRate::total     0.000012                       # mshr miss ratio for overall accesses (Ratio)
system.cpu.icache.demandAvgMshrMissLatency::cpu.inst 66621.813031                       # average overall mshr miss latency ((Tick/Count))
system.cpu.icache.demandAvgMshrMissLatency::total 66621.813031                       # average overall mshr miss latency ((Tick/Count))
system.cpu.icache.overallAvgMshrMissLatency::cpu.inst 66621.813031                       # average overall mshr miss latency ((Tick/Count))
system.cpu.icache.overallAvgMshrMissLatency::total 66621.813031                       # average overall mshr miss latency ((Tick/Count))
system.cpu.icache.replacements                     60                       # number of replacements (Count)
system.cpu.icache.ReadReq.hits::cpu.inst     29604174                       # number of ReadReq hits (Count)
system.cpu.icache.ReadReq.hits::total        29604174                       # number of ReadReq hits (Count)
system.cpu.icache.ReadReq.misses::cpu.inst          477                       # number of ReadReq misses (Count)
system.cpu.icache.ReadReq.misses::total           477                       # number of ReadReq misses (Count)
system.cpu.icache.ReadReq.missLatency::cpu.inst     29887000                       # number of ReadReq miss ticks (Tick)
system.cpu.icache.ReadReq.missLatency::total     29887000                       # number of ReadReq miss ticks (Tick)
system.cpu.icache.ReadReq.accesses::cpu.inst     29604651                       # number of ReadReq accesses(hits+misses) (Count)
system.cpu.icache.ReadReq.accesses::total     29604651                       # number of ReadReq accesses(hits+misses) (Count)
system.cpu.icache.ReadReq.missRate::cpu.inst     0.000016                       # miss rate for ReadReq accesses (Ratio)
system.cpu.icache.ReadReq.missRate::total     0.000016                       # miss rate for ReadReq accesses (Ratio)
system.cpu.icache.ReadReq.avgMissLatency::cpu.inst 62656.184486                       # average ReadReq miss latency ((Tick/Count))
system.cpu.icache.ReadReq.avgMissLatency::total 62656.184486                       # average ReadReq miss latency ((Tick/Count))
system.cpu.icache.ReadReq.mshrHits::cpu.inst          124                       # number of ReadReq MSHR hits (Count)
system.cpu.icache.ReadReq.mshrHits::total          124                       # number of ReadReq MSHR hits (Count)
system.cpu.icache.ReadReq.mshrMisses::cpu.inst          353                       # number of ReadReq MSHR misses (Count)
system.cpu.icache.ReadReq.mshrMisses::total          353                       # number of ReadReq MSHR misses (Count)
system.cpu.icache.ReadReq.mshrMissLatency::cpu.inst     23517500                       # number of ReadReq MSHR miss ticks (Tick)
system.cpu.icache.ReadReq.mshrMissLatency::total     23517500                       # number of ReadReq MSHR miss ticks (Tick)
system.cpu.icache.ReadReq.mshrMissRate::cpu.inst     0.000012                       # mshr miss rate for ReadReq accesses (Ratio)
system.cpu.icache.ReadReq.mshrMissRate::total     0.000012                       # mshr miss rate for ReadReq accesses (Ratio)
system.cpu.icache.ReadReq.avgMshrMissLatency::cpu.inst 66621.813031                       # average ReadReq mshr miss latency ((Tick/Count))
system.cpu.icache.ReadReq.avgMshrMissLatency::total 66621.813031                       # average ReadReq mshr miss latency ((Tick/Count))
system.cpu.icache.power_state.pwrStateResidencyTicks::UNDEFINED  41944208500                       # Cumulative time (in ticks) in various power states (Tick)
system.cpu.icache.tags.tagsInUse           291.974891                       # Average ticks per tags in use ((Tick/Count))
system.cpu.icache.tags.totalRefs             29604527                       # Total number of references to valid blocks. (Count)
system.cpu.icache.tags.sampledRefs                353                       # Sample count of references to valid blocks. (Count)
system.cpu.icache.tags.avgRefs           83865.515581                       # Average number of references to valid blocks. ((Count/Count))
system.cpu.icache.tags.warmupTick               81500                       # The tick when the warmup percentage was hit. (Tick)
system.cpu.icache.tags.occupancies::cpu.inst   291.974891                       # Average occupied blocks per tick, per requestor ((Count/Tick))
system.cpu.icache.tags.avgOccs::cpu.inst     0.570263                       # Average percentage of cache occupancy ((Ratio/Tick))
system.cpu.icache.tags.avgOccs::total        0.570263                       # Average percentage of cache occupancy ((Ratio/Tick))
system.cpu.icache.tags.occupanciesTaskId::1024          293                       # Occupied blocks per task id (Count)
system.cpu.icache.tags.ageTaskId_1024::3            1                       # Occupied blocks per task id, per block age (Count)
system.cpu.icache.tags.ageTaskId_1024::4          292                       # Occupied blocks per task id, per block age (Count)
system.cpu.icache.tags.ratioOccsTaskId::1024     0.572266                       # Ratio of occupied blocks and all blocks, per task id (Ratio)
system.cpu.icache.tags.tagAccesses           59209655                       # Number of tag accesses (Count)
system.cpu.icache.tags.dataAccesses          59209655                       # Number of data accesses (Count)
system.cpu.icache.tags.power_state.pwrStateResidencyTicks::UNDEFINED  41944208500                       # Cumulative time (in ticks) in various power states (Tick)
system.cpu.iew.idleCycles                           0                       # Number of cycles IEW is idle (Cycle)
system.cpu.iew.squashCycles                    105925                       # Number of cycles IEW is squashing (Cycle)
system.cpu.iew.blockCycles                     842657                       # Number of cycles IEW is blocking (Cycle)
system.cpu.iew.unblockCycles                    76598                       # Number of cycles IEW is unblocking (Cycle)
system.cpu.iew.dispatchedInsts              243229022                       # Number of instructions dispatched to IQ (Count)
system.cpu.iew.dispSquashedInsts                 3884                       # Number of squashed instructions skipped by dispatch (Count)
system.cpu.iew.dispLoadInsts                 21186196                       # Number of dispatched load instructions (Count)
system.cpu.iew.dispStoreInsts                22391484                       # Number of dispatched store instructions (Count)
system.cpu.iew.dispNonSpecInsts                    68                       # Number of dispatched non-speculative instructions (Count)
system.cpu.iew.iqFullEvents                     76595                       # Number of times the IQ has become full, causing a stall (Count)
system.cpu.iew.lsqFullEvents                        2                       # Number of times the LSQ has become full, causing a stall (Count)
system.cpu.iew.memOrderViolationEvents            998                       # Number of memory order violations (Count)
system.cpu.iew.predictedTakenIncorrect          85432                       # Number of branches that were predicted taken incorrectly (Count)
system.cpu.iew.predictedNotTakenIncorrect        19200                       # Number of branches that were predicted not taken incorrectly (Count)
system.cpu.iew.branchMispredicts               104632                       # Number of branch mispredicts detected at execute (Count)
system.cpu.iew.instsToCommit                238319830                       # Cumulative count of insts sent to commit (Count)
system.cpu.iew.writebackCount               238307162                       # Cumulative count of insts written-back (Count)
system.cpu.iew.producerInst                 174504341                       # Number of instructions producing a value (Count)
system.cpu.iew.consumerInst                 509089895                       # Number of instructions consuming a value (Count)
system.cpu.iew.wbRate                        2.840764                       # Insts written-back per cycle ((Count/Cycle))
system.cpu.iew.wbFanout                      0.342777                       # Average fanout of values written-back ((Count/Count))
system.cpu.lsq0.forwLoads                     4147054                       # Number of loads that had data forwarded from stores (Count)
system.cpu.lsq0.squashedLoads                  496223                       # Number of loads squashed (Count)
system.cpu.lsq0.ignoredResponses                   93                       # Number of memory responses ignored because the instruction is squashed (Count)
system.cpu.lsq0.memOrderViolation                 998                       # Number of memory ordering violations (Count)
system.cpu.lsq0.squashedStores                 618896                       # Number of stores squashed (Count)
system.cpu.lsq0.rescheduledLoads              5910745                       # Number of loads that were rescheduled (Count)
system.cpu.lsq0.blockedByCache                      8                       # Number of times an access to memory failed due to the cache being blocked (Count)
system.cpu.lsq0.loadToUse::samples           20689968                       # Distribution of cycle latency between the first time a load is issued and its completion (Unspecified)
system.cpu.lsq0.loadToUse::mean              3.962256                       # Distribution of cycle latency between the first time a load is issued and its completion (Unspecified)
system.cpu.lsq0.loadToUse::stdev             2.145242                       # Distribution of cycle latency between the first time a load is issued and its completion (Unspecified)
system.cpu.lsq0.loadToUse::0-9               20602601     99.58%     99.58% # Distribution of cycle latency between the first time a load is issued and its completion (Unspecified)
system.cpu.lsq0.loadToUse::10-19                87245      0.42%    100.00% # Distribution of cycle latency between the first time a load is issued and its completion (Unspecified)
system.cpu.lsq0.loadToUse::20-29                   10      0.00%    100.00% # Distribution of cycle latency between the first time a load is issued and its completion (Unspecified)
system.cpu.lsq0.loadToUse::30-39                    2      0.00%    100.00% # Distribution of cycle latency between the first time a load is issued and its completion (Unspecified)
system.cpu.lsq0.loadToUse::40-49                    1      0.00%    100.00% # Distribution of cycle latency between the first time a load is issued and its completion (Unspecified)
system.cpu.lsq0.loadToUse::50-59                    1      0.00%    100.00% # Distribution of cycle latency between the first time a load is issued and its completion (Unspecified)
system.cpu.lsq0.loadToUse::90-99                    2      0.00%    100.00% # Distribution of cycle latency between the first time a load is issued and its completion (Unspecified)
system.cpu.lsq0.loadToUse::100-109                  2      0.00%    100.00% # Distribution of cycle latency between the first time a load is issued and its completion (Unspecified)
system.cpu.lsq0.loadToUse::110-119                  6      0.00%    100.00% # Distribution of cycle latency between the first time a load is issued and its completion (Unspecified)
system.cpu.lsq0.loadToUse::120-129                  9      0.00%    100.00% # Distribution of cycle latency between the first time a load is issued and its completion (Unspecified)
system.cpu.lsq0.loadToUse::130-139                 43      0.00%    100.00% # Distribution of cycle latency between the first time a load is issued and its completion (Unspecified)
system.cpu.lsq0.loadToUse::140-149                 12      0.00%    100.00% # Distribution of cycle latency between the first time a load is issued and its completion (Unspecified)
system.cpu.lsq0.loadToUse::150-159                  6      0.00%    100.00% # Distribution of cycle latency between the first time a load is issued and its completion (Unspecified)
system.cpu.lsq0.loadToUse::160-169                 13      0.00%    100.00% # Distribution of cycle latency between the first time a load is issued and its completion (Unspecified)
system.cpu.lsq0.loadToUse::170-179                  1      0.00%    100.00% # Distribution of cycle latency between the first time a load is issued and its completion (Unspecified)
system.cpu.lsq0.loadToUse::180-189                  4      0.00%    100.00% # Distribution of cycle latency between the first time a load is issued and its completion (Unspecified)
system.cpu.lsq0.loadToUse::190-199                  7      0.00%    100.00% # Distribution of cycle latency between the first time a load is issued and its completion (Unspecified)
system.cpu.lsq0.loadToUse::overflows                3      0.00%    100.00% # Distribution of cycle latency between the first time a load is issued and its completion (Unspecified)
system.cpu.lsq0.loadToUse::min_value                1                       # Distribution of cycle latency between the first time a load is issued and its completion (Unspecified)
system.cpu.lsq0.loadToUse::max_value              849                       # Distribution of cycle latency between the first time a load is issued and its completion (Unspecified)
system.cpu.lsq0.loadToUse::total             20689968                       # Distribution of cycle latency between the first time a load is issued and its completion (Unspecified)
[...]
system.mem_ctrl.dram.perBankRdBursts::7          4356                       # Per bank write bursts (Count)
system.mem_ctrl.dram.perBankRdBursts::8          4365                       # Per bank write bursts (Count)
system.mem_ctrl.dram.perBankRdBursts::9          4417                       # Per bank write bursts (Count)
system.mem_ctrl.dram.perBankRdBursts::10         4366                       # Per bank write bursts (Count)
system.mem_ctrl.dram.perBankRdBursts::11         4243                       # Per bank write bursts (Count)
system.mem_ctrl.dram.perBankRdBursts::12         4229                       # Per bank write bursts (Count)
system.mem_ctrl.dram.perBankRdBursts::13         4255                       # Per bank write bursts (Count)
system.mem_ctrl.dram.perBankRdBursts::14         4238                       # Per bank write bursts (Count)
system.mem_ctrl.dram.perBankRdBursts::15         4230                       # Per bank write bursts (Count)
system.mem_ctrl.dram.perBankRdBursts::16         4224                       # Per bank write bursts (Count)
system.mem_ctrl.dram.perBankRdBursts::17         4224                       # Per bank write bursts (Count)
system.mem_ctrl.dram.perBankRdBursts::18         4228                       # Per bank write bursts (Count)
system.mem_ctrl.dram.perBankRdBursts::19         4225                       # Per bank write bursts (Count)
system.mem_ctrl.dram.perBankRdBursts::20         4231                       # Per bank write bursts (Count)
system.mem_ctrl.dram.perBankRdBursts::21         4224                       # Per bank write bursts (Count)
system.mem_ctrl.dram.perBankRdBursts::22         4224                       # Per bank write bursts (Count)
system.mem_ctrl.dram.perBankRdBursts::23         4224                       # Per bank write bursts (Count)
system.mem_ctrl.dram.perBankRdBursts::24         4224                       # Per bank write bursts (Count)
system.mem_ctrl.dram.perBankRdBursts::25         4224                       # Per bank write bursts (Count)
system.mem_ctrl.dram.perBankRdBursts::26         4227                       # Per bank write bursts (Count)
system.mem_ctrl.dram.perBankRdBursts::27         4225                       # Per bank write bursts (Count)
system.mem_ctrl.dram.perBankRdBursts::28         4224                       # Per bank write bursts (Count)
system.mem_ctrl.dram.perBankRdBursts::29         4260                       # Per bank write bursts (Count)
system.mem_ctrl.dram.perBankRdBursts::30         4238                       # Per bank write bursts (Count)
system.mem_ctrl.dram.perBankRdBursts::31         4250                       # Per bank write bursts (Count)
system.mem_ctrl.dram.perBankWrBursts::0          4106                       # Per bank write bursts (Count)
system.mem_ctrl.dram.perBankWrBursts::1          4098                       # Per bank write bursts (Count)
system.mem_ctrl.dram.perBankWrBursts::2          4225                       # Per bank write bursts (Count)
system.mem_ctrl.dram.perBankWrBursts::3          4035                       # Per bank write bursts (Count)
system.mem_ctrl.dram.perBankWrBursts::4          4224                       # Per bank write bursts (Count)
system.mem_ctrl.dram.perBankWrBursts::5          4224                       # Per bank write bursts (Count)
system.mem_ctrl.dram.perBankWrBursts::6          4224                       # Per bank write bursts (Count)
system.mem_ctrl.dram.perBankWrBursts::7          4224                       # Per bank write bursts (Count)
system.mem_ctrl.dram.perBankWrBursts::8          4224                       # Per bank write bursts (Count)
system.mem_ctrl.dram.perBankWrBursts::9          4224                       # Per bank write bursts (Count)
system.mem_ctrl.dram.perBankWrBursts::10         4152                       # Per bank write bursts (Count)
system.mem_ctrl.dram.perBankWrBursts::11         4097                       # Per bank write bursts (Count)
system.mem_ctrl.dram.perBankWrBursts::12         4096                       # Per bank write bursts (Count)
system.mem_ctrl.dram.perBankWrBursts::13         4096                       # Per bank write bursts (Count)
system.mem_ctrl.dram.perBankWrBursts::14         4096                       # Per bank write bursts (Count)
system.mem_ctrl.dram.perBankWrBursts::15         4096                       # Per bank write bursts (Count)
system.mem_ctrl.dram.perBankWrBursts::16         4096                       # Per bank write bursts (Count)
system.mem_ctrl.dram.perBankWrBursts::17         4096                       # Per bank write bursts (Count)
system.mem_ctrl.dram.perBankWrBursts::18         4096                       # Per bank write bursts (Count)
system.mem_ctrl.dram.perBankWrBursts::19         4096                       # Per bank write bursts (Count)
system.mem_ctrl.dram.perBankWrBursts::20         4096                       # Per bank write bursts (Count)
system.mem_ctrl.dram.perBankWrBursts::21         4096                       # Per bank write bursts (Count)
system.mem_ctrl.dram.perBankWrBursts::22         4096                       # Per bank write bursts (Count)
system.mem_ctrl.dram.perBankWrBursts::23         4096                       # Per bank write bursts (Count)
system.mem_ctrl.dram.perBankWrBursts::24         4096                       # Per bank write bursts (Count)
system.mem_ctrl.dram.perBankWrBursts::25         4096                       # Per bank write bursts (Count)
system.mem_ctrl.dram.perBankWrBursts::26         4096                       # Per bank write bursts (Count)
system.mem_ctrl.dram.perBankWrBursts::27         4096                       # Per bank write bursts (Count)
system.mem_ctrl.dram.perBankWrBursts::28         4096                       # Per bank write bursts (Count)
system.mem_ctrl.dram.perBankWrBursts::29         4125                       # Per bank write bursts (Count)
system.mem_ctrl.dram.perBankWrBursts::30         4109                       # Per bank write bursts (Count)
system.mem_ctrl.dram.perBankWrBursts::31         4106                       # Per bank write bursts (Count)
system.mem_ctrl.dram.totQLat               1501632318                       # Total ticks spent queuing (Tick)
system.mem_ctrl.dram.totBusLat              455064568                       # Total ticks spent in databus transfers (Tick)
system.mem_ctrl.dram.totMemAccLat          3890584726                       # Total ticks spent from burst creation until serviced by the DRAM (Tick)
system.mem_ctrl.dram.avgQLat                 10995.01                       # Average queueing delay per DRAM burst ((Tick/Count))
system.mem_ctrl.dram.avgBusLat                3332.00                       # Average bus latency per DRAM burst ((Tick/Count))
system.mem_ctrl.dram.avgMemAccLat            28487.01                       # Average memory access latency per DRAM burst ((Tick/Count))
system.mem_ctrl.dram.readRowHits               120195                       # Number of row buffer hits during reads (Count)
system.mem_ctrl.dram.writeRowHits              117319                       # Number of row buffer hits during writes (Count)
system.mem_ctrl.dram.readRowHitRate             88.01                       # Row buffer hit rate for reads (Ratio)
system.mem_ctrl.dram.writeRowHitRate            88.86                       # Row buffer hit rate for writes (Ratio)
system.mem_ctrl.dram.bytesPerActivate::samples        31088                       # Bytes accessed per row activation (Byte)
system.mem_ctrl.dram.bytesPerActivate::mean   552.953165                       # Bytes accessed per row activation (Byte)
system.mem_ctrl.dram.bytesPerActivate::gmean   404.423289                       # Bytes accessed per row activation (Byte)
system.mem_ctrl.dram.bytesPerActivate::stdev   343.186794                       # Bytes accessed per row activation (Byte)
system.mem_ctrl.dram.bytesPerActivate::0-127         3050      9.81%      9.81% # Bytes accessed per row activation (Byte)
system.mem_ctrl.dram.bytesPerActivate::128-255         5277     16.97%     26.79% # Bytes accessed per row activation (Byte)
system.mem_ctrl.dram.bytesPerActivate::256-383         1706      5.49%     32.27% # Bytes accessed per row activation (Byte)
system.mem_ctrl.dram.bytesPerActivate::384-511         4498     14.47%     46.74% # Bytes accessed per row activation (Byte)
system.mem_ctrl.dram.bytesPerActivate::512-639         2614      8.41%     55.15% # Bytes accessed per row activation (Byte)
system.mem_ctrl.dram.bytesPerActivate::640-767         3404     10.95%     66.10% # Bytes accessed per row activation (Byte)
system.mem_ctrl.dram.bytesPerActivate::768-895         2733      8.79%     74.89% # Bytes accessed per row activation (Byte)
system.mem_ctrl.dram.bytesPerActivate::896-1023         1330      4.28%     79.17% # Bytes accessed per row activation (Byte)
system.mem_ctrl.dram.bytesPerActivate::1024-1151         6476     20.83%    100.00% # Bytes accessed per row activation (Byte)
system.mem_ctrl.dram.bytesPerActivate::total        31088                       # Bytes accessed per row activation (Byte)
system.mem_ctrl.dram.bytesRead                8740736                       # Total bytes read (Byte)
system.mem_ctrl.dram.bytesWritten             8449856                       # Total bytes written (Byte)
system.mem_ctrl.dram.avgRdBW               208.389580                       # Average DRAM read bandwidth in MiBytes/s ((Byte/Second))
system.mem_ctrl.dram.avgWrBW               201.454654                       # Average DRAM write bandwidth in MiBytes/s ((Byte/Second))
system.mem_ctrl.dram.peakBW                  19207.00                       # Theoretical peak bandwidth in MiByte/s ((Byte/Second))
system.mem_ctrl.dram.busUtil                     2.13                       # Data bus utilization in percentage (Ratio)
system.mem_ctrl.dram.busUtilRead                 1.08                       # Data bus utilization in percentage for reads (Ratio)
system.mem_ctrl.dram.busUtilWrite                1.05                       # Data bus utilization in percentage for writes (Ratio)
system.mem_ctrl.dram.pageHitRate                88.43                       # Row buffer hit rate, read and write combined (Ratio)
system.mem_ctrl.dram.power_state.pwrStateResidencyTicks::UNDEFINED  41944208500                       # Cumulative time (in ticks) in various power states (Tick)
system.mem_ctrl.dram.rank0.actEnergy     48877081.344001                       # Energy for activate commands per rank (pJ) (Joule)
system.mem_ctrl.dram.rank0.preEnergy     64977306.676803                       # Energy for precharge commands per rank (pJ) (Joule)
system.mem_ctrl.dram.rank0.readEnergy    289806814.886388                       # Energy for read commands per rank (pJ) (Joule)
system.mem_ctrl.dram.rank0.writeEnergy   249718232.736008                       # Energy for write commands per rank (pJ) (Joule)
system.mem_ctrl.dram.rank0.refreshEnergy 7463029277.726805                       # Energy for refresh commands per rank (pJ) (Joule)
system.mem_ctrl.dram.rank0.actBackEnergy 18747029495.476830                       # Energy for active background per rank (pJ) (Joule)
system.mem_ctrl.dram.rank0.preBackEnergy 12976682353.958788                       # Energy for precharge background per rank (pJ) (Joule)
system.mem_ctrl.dram.rank0.actPowerDownEnergy            0                       # Energy for active power-down per rank (pJ) (Joule)
system.mem_ctrl.dram.rank0.prePowerDownEnergy            0                       # Energy for precharge power-down per rank (pJ) (Joule)
system.mem_ctrl.dram.rank0.selfRefreshEnergy            0                       # Energy for self refresh per rank (pJ) (Joule)
system.mem_ctrl.dram.rank0.totalEnergy   39840120562.805794                       # Total energy per rank (pJ) (Joule)
system.mem_ctrl.dram.rank0.averagePower    949.836032                       # Core power per rank (mW) (Watt)
system.mem_ctrl.dram.rank0.totalIdleTime            0                       # Total Idle time Per DRAM Rank (Tick)
system.mem_ctrl.dram.rank0.pwrStateTime::IDLE  19731006586                       # Time in different power states (Tick)
system.mem_ctrl.dram.rank0.pwrStateTime::REF   1885450000                       # Time in different power states (Tick)
system.mem_ctrl.dram.rank0.pwrStateTime::SREF            0                       # Time in different power states (Tick)
system.mem_ctrl.dram.rank0.pwrStateTime::PRE_PDN            0                       # Time in different power states (Tick)
system.mem_ctrl.dram.rank0.pwrStateTime::ACT  20327751914                       # Time in different power states (Tick)
system.mem_ctrl.dram.rank0.pwrStateTime::ACT_PDN            0                       # Time in different power states (Tick)
system.mem_ctrl.dram.rank1.actEnergy     48081799.584001                       # Energy for activate commands per rank (pJ) (Joule)
system.mem_ctrl.dram.rank1.preEnergy     63924136.113603                       # Energy for precharge commands per rank (pJ) (Joule)
system.mem_ctrl.dram.rank1.readEnergy    284666695.756787                       # Energy for read commands per rank (pJ) (Joule)
system.mem_ctrl.dram.rank1.writeEnergy   246512235.648008                       # Energy for write commands per rank (pJ) (Joule)
system.mem_ctrl.dram.rank1.refreshEnergy 7463029277.726805                       # Energy for refresh commands per rank (pJ) (Joule)
system.mem_ctrl.dram.rank1.actBackEnergy 18447650427.024075                       # Energy for active background per rank (pJ) (Joule)
system.mem_ctrl.dram.rank1.preBackEnergy 13206713728.589211                       # Energy for precharge background per rank (pJ) (Joule)
system.mem_ctrl.dram.rank1.actPowerDownEnergy            0                       # Energy for active power-down per rank (pJ) (Joule)
system.mem_ctrl.dram.rank1.prePowerDownEnergy            0                       # Energy for precharge power-down per rank (pJ) (Joule)
system.mem_ctrl.dram.rank1.selfRefreshEnergy            0                       # Energy for self refresh per rank (pJ) (Joule)
system.mem_ctrl.dram.rank1.totalEnergy   39760578300.442505                       # Total energy per rank (pJ) (Joule)
system.mem_ctrl.dram.rank1.averagePower    947.939649                       # Core power per rank (mW) (Watt)
system.mem_ctrl.dram.rank1.totalIdleTime            0                       # Total Idle time Per DRAM Rank (Tick)
system.mem_ctrl.dram.rank1.pwrStateTime::IDLE  20083538494                       # Time in different power states (Tick)
system.mem_ctrl.dram.rank1.pwrStateTime::REF   1885450000                       # Time in different power states (Tick)
system.mem_ctrl.dram.rank1.pwrStateTime::SREF            0                       # Time in different power states (Tick)
system.mem_ctrl.dram.rank1.pwrStateTime::PRE_PDN            0                       # Time in different power states (Tick)
system.mem_ctrl.dram.rank1.pwrStateTime::ACT  19975220006                       # Time in different power states (Tick)
system.mem_ctrl.dram.rank1.pwrStateTime::ACT_PDN            0                       # Time in different power states (Tick)
system.mem_ctrl.power_state.pwrStateResidencyTicks::UNDEFINED  41944208500                       # Cumulative time (in ticks) in various power states (Tick)
system.membus.transDist::ReadResp                 406                       # Transaction distribution (Count)
system.membus.transDist::WritebackDirty        132089                       # Transaction distribution (Count)
system.membus.transDist::CleanEvict                94                       # Transaction distribution (Count)
system.membus.transDist::ReadExReq             136168                       # Transaction distribution (Count)
system.membus.transDist::ReadExResp            136168                       # Transaction distribution (Count)
system.membus.transDist::ReadSharedReq            406                       # Transaction distribution (Count)
system.membus.pktCount_system.l2cache.mem_side_port::system.mem_ctrl.port       405331                       # Packet count per connected requestor and responder (Count)
system.membus.pktCount::total                  405331                       # Packet count per connected requestor and responder (Count)
system.membus.pktSize_system.l2cache.mem_side_port::system.mem_ctrl.port     17194432                       # Cumulative packet size per connected requestor and responder (Byte)
system.membus.pktSize::total                 17194432                       # Cumulative packet size per connected requestor and responder (Byte)
system.membus.snoops                                0                       # Total snoops (Count)
system.membus.snoopTraffic                          0                       # Total snoop traffic (Byte)
system.membus.snoopFanout::samples             136574                       # Request fanout histogram (Count)
system.membus.snoopFanout::mean                     0                       # Request fanout histogram (Count)
system.membus.snoopFanout::stdev                    0                       # Request fanout histogram (Count)
system.membus.snoopFanout::underflows               0      0.00%      0.00% # Request fanout histogram (Count)
system.membus.snoopFanout::0                   136574    100.00%    100.00% # Request fanout histogram (Count)
system.membus.snoopFanout::1                        0      0.00%    100.00% # Request fanout histogram (Count)
system.membus.snoopFanout::overflows                0      0.00%    100.00% # Request fanout histogram (Count)
system.membus.snoopFanout::min_value                0                       # Request fanout histogram (Count)
system.membus.snoopFanout::max_value                0                       # Request fanout histogram (Count)
system.membus.snoopFanout::total               136574                       # Request fanout histogram (Count)
system.membus.power_state.pwrStateResidencyTicks::UNDEFINED  41944208500                       # Cumulative time (in ticks) in various power states (Tick)
system.membus.reqLayer0.occupancy           398556500                       # Layer occupancy (ticks) (Tick)
system.membus.reqLayer0.utilization               0.0                       # Layer utilization (Ratio)
system.membus.respLayer0.occupancy          346446274                       # Layer occupancy (ticks) (Tick)
system.membus.respLayer0.utilization              0.0                       # Layer utilization (Ratio)
system.membus.snoop_filter.totRequests         268757                       # Total number of requests made to the snoop filter. (Count)
system.membus.snoop_filter.hitSingleRequests       132183                       # Number of requests hitting in the snoop filter with a single holder of the requested data. (Count)
system.membus.snoop_filter.hitMultiRequests            0                       # Number of requests hitting in the snoop filter with multiple (>1) holders of the requested data. (Count)
system.membus.snoop_filter.totSnoops                0                       # Total number of snoops made to the snoop filter. (Count)
system.membus.snoop_filter.hitSingleSnoops            0                       # Number of snoops hitting in the snoop filter with a single holder of the requested data. (Count)
system.membus.snoop_filter.hitMultiSnoops            0                       # Number of snoops hitting in the snoop filter with multiple (>1) holders of the requested data. (Count)
system.workload.inst.arm                            0                       # number of arm instructions executed (Count)
system.workload.inst.quiesce                        0                       # number of quiesce instructions executed (Count)

---------- End Simulation Statistics   ----------
