
---------- Begin Simulation Statistics ----------
simSeconds                                   0.383880                       # Number of seconds simulated (Second)
simTicks                                 383880045000                       # Number of ticks simulated (Tick)
finalTick                                383880045000                       # Number of ticks from beginning of simulation (restored from checkpoints and never reset) (Tick)
simFreq                                  1000000000000                       # The number of ticks per simulated second ((Tick/Second))
hostSeconds                                   3723.65                       # Real time elapsed on the host (Second)
hostTickRate                                103092503                       # The number of ticks simulated per host second (ticks/s) ((Tick/Second))
hostMemory                                    2238836                       # Number of bytes of host memory used (Byte)
simInsts                                   1000000001                       # Number of instructions simulated (Count)
simOps                                     1177819171                       # Number of ops (including micro ops) simulated (Count)
hostInstRate                                   268554                       # Simulator instruction rate (inst/s) ((Count/Second))
hostOpRate                                     316308                       # Simulator op (including micro ops) rate (op/s) ((Count/Second))
system.clk_domain.clock                           500                       # Clock period in ticks (Tick)
system.clk_domain.voltage_domain.voltage            1                       # Voltage in Volts (Volt)
system.cpu.numCycles                        767760091                       # Number of cpu cycles simulated (Cycle)
system.cpu.numWorkItemsStarted                      0                       # Number of work items this cpu started (Count)
system.cpu.numWorkItemsCompleted                    0                       # Number of work items this cpu completed (Count)
system.cpu.instsAdded                      1431918037                       # Number of instructions added to the IQ (excludes non-spec) (Count)
system.cpu.nonSpecInstsAdded                      111                       # Number of non-speculative instructions added to the IQ (Count)
system.cpu.instsIssued                     1298436367                       # Number of instructions issued (Count)
system.cpu.squashedInstsIssued                 515970                       # Number of squashed instructions issued (Count)
system.cpu.squashedInstsExamined            254098905                       # Number of squashed instructions iterated over during squash; mainly for profiling (Count)
system.cpu.squashedOperandsExamined         830650160                       # Number of squashed operands that are examined and possibly removed from graph (Count)
system.cpu.squashedNonSpecRemoved                  15                       # Number of squashed non-spec instructions that were removed (Count)
system.cpu.numIssuedDist::samples           767739906                       # Number of insts issued each cycle (Count)
system.cpu.numIssuedDist::mean               1.691245                       # Number of insts issued each cycle (Count)
system.cpu.numIssuedDist::stdev              2.200764                       # Number of insts issued each cycle (Count)
system.cpu.numIssuedDist::underflows                0      0.00%      0.00% # Number of insts issued each cycle (Count)
system.cpu.numIssuedDist::0                 390967736     50.92%     50.92% # Number of insts issued each cycle (Count)
system.cpu.numIssuedDist::1                  61918775      8.07%     58.99% # Number of insts issued each cycle (Count)
system.cpu.numIssuedDist::2                  84335371     10.98%     69.97% # Number of insts issued each cycle (Count)
system.cpu.numIssuedDist::3                  71784573      9.35%     79.32% # Number of insts issued each cycle (Count)
system.cpu.numIssuedDist::4                  56116833      7.31%     86.63% # Number of insts issued each cycle (Count)
system.cpu.numIssuedDist::5                  39359736      5.13%     91.76% # Number of insts issued each cycle (Count)
system.cpu.numIssuedDist::6                  30605040      3.99%     95.75% # Number of insts issued each cycle (Count)
system.cpu.numIssuedDist::7                  13617857      1.77%     97.52% # Number of insts issued each cycle (Count)
system.cpu.numIssuedDist::8                  19033985      2.48%    100.00% # Number of insts issued each cycle (Count)
system.cpu.numIssuedDist::overflows                 0      0.00%    100.00% # Number of insts issued each cycle (Count)
system.cpu.numIssuedDist::min_value                 0                       # Number of insts issued each cycle (Count)
system.cpu.numIssuedDist::max_value                 8                       # Number of insts issued each cycle (Count)
system.cpu.numIssuedDist::total             767739906                       # Number of insts issued each cycle (Count)
system.cpu.statFuBusy::No_OpClass                   0      0.00%      0.00% # attempts to use FU when none available (Count)
system.cpu.statFuBusy::IntAlu                 5227515     66.20%     66.20% # attempts to use FU when none available (Count)
system.cpu.statFuBusy::IntMult                      0      0.00%     66.20% # attempts to use FU when none available (Count)
system.cpu.statFuBusy::IntDiv                       0      0.00%     66.20% # attempts to use FU when none available (Count)
system.cpu.statFuBusy::FloatAdd                     0      0.00%     66.20% # attempts to use FU when none available (Count)
system.cpu.statFuBusy::FloatCmp                     0      0.00%     66.20% # attempts to use FU when none available (Count)
system.cpu.statFuBusy::FloatCvt                     0      0.00%     66.20% # attempts to use FU when none available (Count)
system.cpu.statFuBusy::FloatMult                    0      0.00%     66.20% # attempts to use FU when none available (Count)
system.cpu.statFuBusy::FloatMultAcc                 0      0.00%     66.20% # attempts to use FU when none available (Count)
system.cpu.statFuBusy::FloatDiv                     0      0.00%     66.20% # attempts to use FU when none available (Count)
system.cpu.statFuBusy::FloatMisc                    0      0.00%     66.20% # attempts to use FU when none available (Count)
system.cpu.statFuBusy::FloatSqrt                    0      0.00%     66.20% # attempts to use FU when none available (Count)
system.cpu.statFuBusy::SimdAdd                      0      0.00%     66.20% # attempts to use FU when none available (Count)
system.cpu.statFuBusy::SimdAddAcc                   0      0.00%     66.20% # attempts to use FU when none available (Count)
system.cpu.statFuBusy::SimdAlu                      0      0.00%     66.20% # attempts to use FU when none available (Count)
system.cpu.statFuBusy::SimdCmp                      0      0.00%     66.20% # attempts to use FU when none available (Count)
system.cpu.statFuBusy::SimdCvt                      0      0.00%     66.20% # attempts to use FU when none available (Count)
system.cpu.statFuBusy::SimdMisc                     0      0.00%     66.20% # attempts to use FU when none available (Count)
system.cpu.statFuBusy::SimdMult                     0      0.00%     66.20% # attempts to use FU when none available (Count)
system.cpu.statFuBusy::SimdMultAcc                  0      0.00%     66.20% # attempts to use FU when none available (Count)
system.cpu.statFuBusy::SimdShift                    0      0.00%     66.20% # attempts to use FU when none available (Count)
system.cpu.statFuBusy::SimdShiftAcc                 0      0.00%     66.20% # attempts to use FU when none available (Count)
system.cpu.statFuBusy::SimdDiv                      0      0.00%     66.20% # attempts to use FU when none available (Count)
system.cpu.statFuBusy::SimdSqrt                     0      0.00%     66.20% # attempts to use FU when none available (Count)
system.cpu.statFuBusy::SimdFloatAdd                 0      0.00%     66.20% # attempts to use FU when none available (Count)
system.cpu.statFuBusy::SimdFloatAlu                 0      0.00%     66.20% # attempts to use FU when none available (Count)
system.cpu.statFuBusy::SimdFloatCmp                 0      0.00%     66.20% # attempts to use FU when none available (Count)
system.cpu.statFuBusy::SimdFloatCvt                 0      0.00%     66.20% # attempts to use FU when none available (Count)
system.cpu.statFuBusy::SimdFloatDiv                 0      0.00%     66.20% # attempts to use FU when none available (Count)
system.cpu.statFuBusy::SimdFloatMisc                0      0.00%     66.20% # attempts to use FU when none available (Count)
system.cpu.statFuBusy::SimdFloatMult                0      0.00%     66.20% # attempts to use FU when none available (Count)
system.cpu.statFuBusy::SimdFloatMultAcc             0      0.00%     66.20% # attempts to use FU when none available (Count)
system.cpu.statFuBusy::SimdFloatSqrt                0      0.00%     66.20% # attempts to use FU when none available (Count)
system.cpu.statFuBusy::SimdReduceAdd                0      0.00%     66.20% # attempts to use FU when none available (Count)
system.cpu.statFuBusy::SimdReduceAlu                0      0.00%     66.20% # attempts to use FU when none available (Count)
system.cpu.statFuBusy::SimdReduceCmp                0      0.00%     66.20% # attempts to use FU when none available (Count)
system.cpu.statFuBusy::SimdFloatReduceAdd            0      0.00%     66.20% # attempts to use FU when none available (Count)
system.cpu.statFuBusy::SimdFloatReduceCmp            0      0.00%     66.20% # attempts to use FU when none available (Count)
system.cpu.statFuBusy::SimdAes                      0      0.00%     66.20% # attempts to use FU when none available (Count)
system.cpu.statFuBusy::SimdAesMix                   0      0.00%     66.20% # attempts to use FU when none available (Count)
system.cpu.statFuBusy::SimdSha1Hash                 0      0.00%     66.20% # attempts to use FU when none available (Count)
system.cpu.statFuBusy::SimdSha1Hash2                0      0.00%     66.20% # attempts to use FU when none available (Count)
system.cpu.statFuBusy::SimdSha256Hash               0      0.00%     66.20% # attempts to use FU when none available (Count)
system.cpu.statFuBusy::SimdSha256Hash2              0      0.00%     66.20% # attempts to use FU when none available (Count)
system.cpu.statFuBusy::SimdShaSigma2                0      0.00%     66.20% # attempts to use FU when none available (Count)
system.cpu.statFuBusy::SimdShaSigma3                0      0.00%     66.20% # attempts to use FU when none available (Count)
system.cpu.statFuBusy::SimdPredAlu                  0      0.00%     66.20% # attempts to use FU when none available (Count)
system.cpu.statFuBusy::MemRead                2315141     29.32%     95.52% # attempts to use FU when none available (Count)
system.cpu.statFuBusy::MemWrite                353536      4.48%    100.00% # attempts to use FU when none available (Count)
system.cpu.statFuBusy::FloatMemRead                 0      0.00%    100.00% # attempts to use FU when none available (Count)
system.cpu.statFuBusy::FloatMemWrite                0      0.00%    100.00% # attempts to use FU when none available (Count)
system.cpu.statFuBusy::IprAccess                    0      0.00%    100.00% # attempts to use FU when none available (Count)
system.cpu.statFuBusy::InstPrefetch                 0      0.00%    100.00% # attempts to use FU when none available (Count)
system.cpu.statIssuedInstType_0::No_OpClass       205529      0.02%      0.02% # Number of instructions issued per FU type, per thread (Count)
system.cpu.statIssuedInstType_0::IntAlu    1000567086     77.06%     77.08% # Number of instructions issued per FU type, per thread (Count)
system.cpu.statIssuedInstType_0::IntMult     23127233      1.78%     78.86% # Number of instructions issued per FU type, per thread (Count)
system.cpu.statIssuedInstType_0::IntDiv             0      0.00%     78.86% # Number of instructions issued per FU type, per thread (Count)
system.cpu.statIssuedInstType_0::FloatAdd            0      0.00%     78.86% # Number of instructions issued per FU type, per thread (Count)
system.cpu.statIssuedInstType_0::FloatCmp            0      0.00%     78.86% # Number of instructions issued per FU type, per thread (Count)
system.cpu.statIssuedInstType_0::FloatCvt            0      0.00%     78.86% # Number of instructions issued per FU type, per thread (Count)
system.cpu.statIssuedInstType_0::FloatMult            0      0.00%     78.86% # Number of instructions issued per FU type, per thread (Count)
system.cpu.statIssuedInstType_0::FloatMultAcc            0      0.00%     78.86% # Number of instructions issued per FU type, per thread (Count)
system.cpu.statIssuedInstType_0::FloatDiv            0      0.00%     78.86% # Number of instructions issued per FU type, per thread (Count)
system.cpu.statIssuedInstType_0::FloatMisc            0      0.00%     78.86% # Number of instructions issued per FU type, per thread (Count)
system.cpu.statIssuedInstType_0::FloatSqrt            0      0.00%     78.86% # Number of instructions issued per FU type, per thread (Count)
system.cpu.statIssuedInstType_0::SimdAdd            0      0.00%     78.86% # Number of instructions issued per FU type, per thread (Count)
system.cpu.statIssuedInstType_0::SimdAddAcc            0      0.00%     78.86% # Number of instructions issued per FU type, per thread (Count)
system.cpu.statIssuedInstType_0::SimdAlu            0      0.00%     78.86% # Number of instructions issued per FU type, per thread (Count)
system.cpu.statIssuedInstType_0::SimdCmp            0      0.00%     78.86% # Number of instructions issued per FU type, per thread (Count)
system.cpu.statIssuedInstType_0::SimdCvt            0      0.00%     78.86% # Number of instructions issued per FU type, per thread (Count)
system.cpu.statIssuedInstType_0::SimdMisc            0      0.00%     78.86% # Number of instructions issued per FU type, per thread (Count)
system.cpu.statIssuedInstType_0::SimdMult            0      0.00%     78.86% # Number of instructions issued per FU type, per thread (Count)
system.cpu.statIssuedInstType_0::SimdMultAcc            0      0.00%     78.86% # Number of instructions issued per FU type, per thread (Count)
system.cpu.statIssuedInstType_0::SimdShift            0      0.00%     78.86% # Number of instructions issued per FU type, per thread (Count)
system.cpu.statIssuedInstType_0::SimdShiftAcc            0      0.00%     78.86% # Number of instructions issued per FU type, per thread (Count)
system.cpu.statIssuedInstType_0::SimdDiv            0      0.00%     78.86% # Number of instructions issued per FU type, per thread (Count)
system.cpu.statIssuedInstType_0::SimdSqrt            0      0.00%     78.86% # Number of instructions issued per FU type, per thread (Count)
system.cpu.statIssuedInstType_0::SimdFloatAdd            0      0.00%     78.86% # Number of instructions issued per FU type, per thread (Count)
system.cpu.statIssuedInstType_0::SimdFloatAlu            0      0.00%     78.86% # Number of instructions issued per FU type, per thread (Count)
system.cpu.statIssuedInstType_0::SimdFloatCmp            0      0.00%     78.86% # Number of instructions issued per FU type, per thread (Count)
system.cpu.statIssuedInstType_0::SimdFloatCvt            0      0.00%     78.86% # Number of instructions issued per FU type, per thread (Count)
system.cpu.statIssuedInstType_0::SimdFloatDiv            0      0.00%     78.86% # Number of instructions issued per FU type, per thread (Count)
system.cpu.statIssuedInstType_0::SimdFloatMisc            0      0.00%     78.86% # Number of instructions issued per FU type, per thread (Count)
system.cpu.statIssuedInstType_0::SimdFloatMult            0      0.00%     78.86% # Number of instructions issued per FU type, per thread (Count)
system.cpu.statIssuedInstType_0::SimdFloatMultAcc            0      0.00%     78.86% # Number of instructions issued per FU type, per thread (Count)
system.cpu.statIssuedInstType_0::SimdFloatSqrt            0      0.00%     78.86% # Number of instructions issued per FU type, per thread (Count)
system.cpu.statIssuedInstType_0::SimdReduceAdd            0      0.00%     78.86% # Number of instructions issued per FU type, per thread (Count)
system.cpu.statIssuedInstType_0::SimdReduceAlu            0      0.00%     78.86% # Number of instructions issued per FU type, per thread (Count)
system.cpu.statIssuedInstType_0::SimdReduceCmp            0      0.00%     78.86% # Number of instructions issued per FU type, per thread (Count)
system.cpu.statIssuedInstType_0::SimdFloatReduceAdd            0      0.00%     78.86% # Number of instructions issued per FU type, per thread (Count)
system.cpu.statIssuedInstType_0::SimdFloatReduceCmp            0      0.00%     78.86% # Number of instructions issued per FU type, per thread (Count)
system.cpu.statIssuedInstType_0::SimdAes            0      0.00%     78.86% # Number of instructions issued per FU type, per thread (Count)
system.cpu.statIssuedInstType_0::SimdAesMix            0      0.00%     78.86% # Number of instructions issued per FU type, per thread (Count)
system.cpu.statIssuedInstType_0::SimdSha1Hash            0      0.00%     78.86% # Number of instructions issued per FU type, per thread (Count)
system.cpu.statIssuedInstType_0::SimdSha1Hash2            0      0.00%     78.86% # Number of instructions issued per FU type, per thread (Count)
system.cpu.statIssuedInstType_0::SimdSha256Hash            0      0.00%     78.86% # Number of instructions issued per FU type, per thread (Count)
system.cpu.statIssuedInstType_0::SimdSha256Hash2            0      0.00%     78.86% # Number of instructions issued per FU type, per thread (Count)
system.cpu.statIssuedInstType_0::SimdShaSigma2            0      0.00%     78.86% # Number of instructions issued per FU type, per thread (Count)
system.cpu.statIssuedInstType_0::SimdShaSigma3            0      0.00%     78.86% # Number of instructions issued per FU type, per thread (Count)
system.cpu.statIssuedInstType_0::SimdPredAlu            0      0.00%     78.86% # Number of instructions issued per FU type, per thread (Count)
system.cpu.statIssuedInstType_0::MemRead    167031645     12.86%     91.72% # Number of instructions issued per FU type, per thread (Count)
system.cpu.statIssuedInstType_0::MemWrite    107504874      8.28%    100.00% # Number of instructions issued per FU type, per thread (Count)
system.cpu.statIssuedInstType_0::FloatMemRead            0      0.00%    100.00% # Number of instructions issued per FU type, per thread (Count)
system.cpu.statIssuedInstType_0::FloatMemWrite            0      0.00%    100.00% # Number of instructions issued per FU type, per thread (Count)
system.cpu.statIssuedInstType_0::IprAccess            0      0.00%    100.00% # Number of instructions issued per FU type, per thread (Count)
system.cpu.statIssuedInstType_0::InstPrefetch            0      0.00%    100.00% # Number of instructions issued per FU type, per thread (Count)
system.cpu.statIssuedInstType_0::total     1298436367                       # Number of instructions issued per FU type, per thread (Count)
system.cpu.issueRate                         1.691201                       # Inst issue rate ((Count/Cycle))
system.cpu.fuBusy                             7896192                       # FU busy when requested (Count)
system.cpu.fuBusyRate                        0.006081                       # FU busy rate (busy events/executed inst) ((Count/Count))
system.cpu.intInstQueueReads               3373024799                       # Number of integer instruction queue reads (Count)
system.cpu.intInstQueueWrites              1686027378                       # Number of integer instruction queue writes (Count)
system.cpu.intInstQueueWakeupAccesses      1258739830                       # Number of integer instruction queue wakeup accesses (Count)
system.cpu.fpInstQueueReads                         0                       # Number of floating instruction queue reads (Count)
system.cpu.fpInstQueueWrites                        0                       # Number of floating instruction queue writes (Count)
system.cpu.fpInstQueueWakeupAccesses                0                       # Number of floating instruction queue wakeup accesses (Count)
system.cpu.vecInstQueueReads                        0                       # Number of vector instruction queue reads (Count)
system.cpu.vecInstQueueWrites                       0                       # Number of vector instruction queue writes (Count)
system.cpu.vecInstQueueWakeupAccesses               0                       # Number of vector instruction queue wakeup accesses (Count)
system.cpu.intAluAccesses                  1306127030                       # Number of integer alu accesses (Count)
system.cpu.fpAluAccesses                            0                       # Number of floating point alu accesses (Count)
system.cpu.vecAluAccesses                           0                       # Number of vector alu accesses (Count)
system.cpu.numInsts                        1294513817                       # Number of executed instructions (Count)
system.cpu.numLoadInsts                     165831044                       # Number of load instructions executed (Count)
system.cpu.numSquashedInsts                   3922547                       # Number of squashed instructions skipped in execute (Count)
system.cpu.numSwp                                   0                       # Number of swp insts executed (Count)
system.cpu.numNop                                   0                       # Number of nop insts executed (Count)
system.cpu.numRefs                          273035095                       # Number of memory reference insts executed (Count)
system.cpu.numBranches                      150881913                       # Number of branches executed (Count)
system.cpu.numStoreInsts                    107204051                       # Number of stores executed (Count)
system.cpu.numRate                           1.686092                       # Inst execution rate ((Count/Cycle))
system.cpu.timesIdled                             210                       # Number of times that the entire CPU went into an idle state and unscheduled itself (Count)
system.cpu.idleCycles                           20185                       # Total number of cycles that the CPU has spent unscheduled due to idling (Cycle)
system.cpu.committedInsts                  1000000001                       # Number of Instructions Simulated (Count)
system.cpu.committedOps                    1177819171                       # Number of Ops (including micro ops) Simulated (Count)
system.cpu.cpi                               0.767760                       # CPI: Cycles Per Instruction ((Cycle/Count))
system.cpu.totalCpi                          0.767760                       # CPI: Total CPI of All Threads ((Cycle/Count))
system.cpu.ipc                               1.302490                       # IPC: Instructions Per Cycle ((Count/Cycle))
system.cpu.totalIpc                          1.302490                       # IPC: Total IPC of All Threads ((Count/Cycle))
system.cpu.intRegfileReads                 1666146070                       # Number of integer regfile reads (Count)
system.cpu.intRegfileWrites                1027096192                       # Number of integer regfile writes (Count)
system.cpu.vecRegfileReads                         32                       # number of vector regfile reads (Count)
system.cpu.ccRegfileReads                  4316035979                       # number of cc regfile reads (Count)
system.cpu.ccRegfileWrites                  522203951                       # number of cc regfile writes (Count)
system.cpu.miscRegfileReads                 237180569                       # number of misc regfile reads (Count)
system.cpu.miscRegfileWrites                      165                       # number of misc regfile writes (Count)
system.cpu.MemDepUnit__0.insertedLoads      143766195                       # Number of loads inserted to the mem dependence unit. (Count)
system.cpu.MemDepUnit__0.insertedStores     121194508                       # Number of stores inserted to the mem dependence unit. (Count)
system.cpu.MemDepUnit__0.conflictingLoads     45551714                       # Number of conflicting loads. (Count)
system.cpu.MemDepUnit__0.conflictingStores     51021731                       # Number of conflicting stores. (Count)
system.cpu.MemDepUnit__1.insertedLoads              0                       # Number of loads inserted to the mem dependence unit. (Count)
system.cpu.MemDepUnit__1.insertedStores             0                       # Number of stores inserted to the mem dependence unit. (Count)
system.cpu.MemDepUnit__1.conflictingLoads            0                       # Number of conflicting loads. (Count)
system.cpu.MemDepUnit__1.conflictingStores            0                       # Number of conflicting stores. (Count)
system.cpu.MemDepUnit__2.insertedLoads              0                       # Number of loads inserted to the mem dependence unit. (Count)
system.cpu.MemDepUnit__2.insertedStores             0                       # Number of stores inserted to the mem dependence unit. (Count)
system.cpu.MemDepUnit__2.conflictingLoads            0                       # Number of conflicting loads. (Count)
system.cpu.MemDepUnit__2.conflictingStores            0                       # Number of conflicting stores. (Count)
system.cpu.MemDepUnit__3.insertedLoads              0                       # Number of loads inserted to the mem dependence unit. (Count)
system.cpu.MemDepUnit__3.insertedStores             0                       # Number of stores inserted to the mem dependence unit. (Count)
system.cpu.MemDepUnit__3.conflictingLoads            0                       # Number of conflicting loads. (Count)
system.cpu.MemDepUnit__3.conflictingStores            0                       # Number of conflicting stores. (Count)
system.cpu.branchPred.lookups               177613399                       # Number of BP lookups (Count)
system.cpu.branchPred.condPredicted         118630719                       # Number of conditional branches predicted (Count)
system.cpu.branchPred.condIncorrect           5445593                       # Number of conditional branches incorrect (Count)
system.cpu.branchPred.BTBLookups             89220758                       # Number of BTB lookups (Count)
system.cpu.branchPred.BTBHits                88423230                       # Number of BTB hits (Count)
system.cpu.branchPred.BTBHitRatio            0.991061                       # BTB Hit Ratio (Ratio)
system.cpu.branchPred.RASUsed                32371833                       # Number of times the RAS was used to get a target. (Count)
system.cpu.branchPred.RASIncorrect            3495060                       # Number of incorrect RAS predictions. (Count)
system.cpu.branchPred.indirectLookups             246                       # Number of indirect predictor lookups. (Count)
system.cpu.branchPred.indirectHits                 33                       # Number of indirect target hits. (Count)
system.cpu.branchPred.indirectMisses              213                       # Number of indirect misses. (Count)
system.cpu.branchPred.indirectMispredicted           69                       # Number of mispredicted indirect branches. (Count)
system.cpu.commit.commitSquashedInsts       253708072                       # The number of squashed insts skipped by commit (Count)
system.cpu.commit.commitNonSpecStalls              96                       # The number of times commit has been forced to stall to communicate backwards (Count)
system.cpu.commit.branchMispredicts           5650815                       # The number of times a branch was mispredicted (Count)
system.cpu.commit.numCommittedDist::samples    729902624                       # Number of insts commited each cycle (Count)
system.cpu.commit.numCommittedDist::mean     1.613666                       # Number of insts commited each cycle (Count)
system.cpu.commit.numCommittedDist::stdev     2.516701                       # Number of insts commited each cycle (Count)
system.cpu.commit.numCommittedDist::underflows            0      0.00%      0.00% # Number of insts commited each cycle (Count)
system.cpu.commit.numCommittedDist::0       403824797     55.33%     55.33% # Number of insts commited each cycle (Count)
system.cpu.commit.numCommittedDist::1       108507794     14.87%     70.19% # Number of insts commited each cycle (Count)
system.cpu.commit.numCommittedDist::2        35470105      4.86%     75.05% # Number of insts commited each cycle (Count)
system.cpu.commit.numCommittedDist::3        51652564      7.08%     82.13% # Number of insts commited each cycle (Count)
system.cpu.commit.numCommittedDist::4        28880872      3.96%     86.08% # Number of insts commited each cycle (Count)
system.cpu.commit.numCommittedDist::5        13133451      1.80%     87.88% # Number of insts commited each cycle (Count)
system.cpu.commit.numCommittedDist::6        18434871      2.53%     90.41% # Number of insts commited each cycle (Count)
system.cpu.commit.numCommittedDist::7         8371854      1.15%     91.56% # Number of insts commited each cycle (Count)
system.cpu.commit.numCommittedDist::8        61626316      8.44%    100.00% # Number of insts commited each cycle (Count)
system.cpu.commit.numCommittedDist::overflows            0      0.00%    100.00% # Number of insts commited each cycle (Count)
system.cpu.commit.numCommittedDist::min_value            0                       # Number of insts commited each cycle (Count)
system.cpu.commit.numCommittedDist::max_value            8                       # Number of insts commited each cycle (Count)
system.cpu.commit.numCommittedDist::total    729902624                       # Number of insts commited each cycle (Count)
system.cpu.commit.instsCommitted           1000000001                       # Number of instructions committed (Count)
system.cpu.commit.opsCommitted             1177819171                       # Number of ops (including micro ops) committed (Count)
system.cpu.commit.memRefs                   225789107                       # Number of memory references committed (Count)
system.cpu.commit.loads                     120667805                       # Number of loads committed (Count)
system.cpu.commit.amos                              0                       # Number of atomic instructions committed (Count)
system.cpu.commit.membars                          42                       # Number of memory barriers committed (Count)
system.cpu.commit.branches                  139955285                       # Number of branches committed (Count)
system.cpu.commit.vectorInstructions                0                       # Number of committed Vector instructions. (Count)
system.cpu.commit.floating                          0                       # Number of committed floating point instructions. (Count)
system.cpu.commit.integer                  1114424375                       # Number of committed integer instructions. (Count)
system.cpu.commit.functionCalls              36944233                       # Number of function calls committed. (Count)
system.cpu.commit.committedInstType_0::No_OpClass            0      0.00%      0.00% # Class of committed instruction (Count)
system.cpu.commit.committedInstType_0::IntAlu    931875767     79.12%     79.12% # Class of committed instruction (Count)
system.cpu.commit.committedInstType_0::IntMult     20154297      1.71%     80.83% # Class of committed instruction (Count)
system.cpu.commit.committedInstType_0::IntDiv            0      0.00%     80.83% # Class of committed instruction (Count)
system.cpu.commit.committedInstType_0::FloatAdd            0      0.00%     80.83% # Class of committed instruction (Count)
system.cpu.commit.committedInstType_0::FloatCmp            0      0.00%     80.83% # Class of committed instruction (Count)
system.cpu.commit.committedInstType_0::FloatCvt            0      0.00%     80.83% # Class of committed instruction (Count)
system.cpu.commit.committedInstType_0::FloatMult            0      0.00%     80.83% # Class of committed instruction (Count)
system.cpu.commit.committedInstType_0::FloatMultAcc            0      0.00%     80.83% # Class of committed instruction (Count)
system.cpu.commit.committedInstType_0::FloatDiv            0      0.00%     80.83% # Class of committed instruction (Count)
system.cpu.commit.committedInstType_0::FloatMisc            0      0.00%     80.83% # Class of committed instruction (Count)
system.cpu.commit.committedInstType_0::FloatSqrt            0      0.00%     80.83% # Class of committed instruction (Count)
system.cpu.commit.committedInstType_0::SimdAdd            0      0.00%     80.83% # Class of committed instruction (Count)
system.cpu.commit.committedInstType_0::SimdAddAcc            0      0.00%     80.83% # Class of committed instruction (Count)
system.cpu.commit.committedInstType_0::SimdAlu            0      0.00%     80.83% # Class of committed instruction (Count)
system.cpu.commit.committedInstType_0::SimdCmp            0      0.00%     80.83% # Class of committed instruction (Count)
system.cpu.commit.committedInstType_0::SimdCvt            0      0.00%     80.83% # Class of committed instruction (Count)
system.cpu.commit.committedInstType_0::SimdMisc            0      0.00%     80.83% # Class of committed instruction (Count)
system.cpu.commit.committedInstType_0::SimdMult            0      0.00%     80.83% # Class of committed instruction (Count)
system.cpu.commit.committedInstType_0::SimdMultAcc            0      0.00%     80.83% # Class of committed instruction (Count)
system.cpu.commit.committedInstType_0::SimdShift            0      0.00%     80.83% # Class of committed instruction (Count)
system.cpu.commit.committedInstType_0::SimdShiftAcc            0      0.00%     80.83% # Class of committed instruction (Count)
system.cpu.commit.committedInstType_0::SimdDiv            0      0.00%     80.83% # Class of committed instruction (Count)
system.cpu.commit.committedInstType_0::SimdSqrt            0      0.00%     80.83% # Class of committed instruction (Count)
system.cpu.commit.committedInstType_0::SimdFloatAdd            0      0.00%     80.83% # Class of committed instruction (Count)
system.cpu.commit.committedInstType_0::SimdFloatAlu            0      0.00%     80.83% # Class of committed instruction (Count)
system.cpu.commit.committedInstType_0::SimdFloatCmp            0      0.00%     80.83% # Class of committed instruction (Count)
system.cpu.commit.committedInstType_0::SimdFloatCvt            0      0.00%     80.83% # Class of committed instruction (Count)
system.cpu.commit.committedInstType_0::SimdFloatDiv            0      0.00%     80.83% # Class of committed instruction (Count)
system.cpu.commit.committedInstType_0::SimdFloatMisc            0      0.00%     80.83% # Class of committed instruction (Count)
system.cpu.commit.committedInstType_0::SimdFloatMult            0      0.00%     80.83% # Class of committed instruction (Count)
system.cpu.commit.committedInstType_0::SimdFloatMultAcc            0      0.00%     80.83% # Class of committed instruction (Count)
system.cpu.commit.committedInstType_0::SimdFloatSqrt            0      0.00%     80.83% # Class of committed instruction (Count)
system.cpu.commit.committedInstType_0::SimdReduceAdd            0      0.00%     80.83% # Class of committed instruction (Count)
system.cpu.commit.committedInstType_0::SimdReduceAlu            0      0.00%     80.83% # Class of committed instruction (Count)
system.cpu.commit.committedInstType_0::SimdReduceCmp            0      0.00%     80.83% # Class of committed instruction (Count)
system.cpu.commit.committedInstType_0::SimdFloatReduceAdd            0      0.00%     80.83% # Class of committed instruction (Count)
system.cpu.commit.committedInstType_0::SimdFloatReduceCmp            0      0.00%     80.83% # Class of committed instruction (Count)
system.cpu.commit.committedInstType_0::SimdAes            0      0.00%     80.83% # Class of committed instruction (Count)
system.cpu.commit.committedInstType_0::SimdAesMix            0      0.00%     80.83% # Class of committed instruction (Count)
system.cpu.commit.committedInstType_0::SimdSha1Hash            0      0.00%     80.83% # Class of committed instruction (Count)
system.cpu.commit.committedInstType_0::SimdSha1Hash2            0      0.00%     80.83% # Class of committed instruction (Count)
system.cpu.commit.committedInstType_0::SimdSha256Hash            0      0.00%     80.83% # Class of committed instruction (Count)
system.cpu.commit.committedInstType_0::SimdSha256Hash2            0      0.00%     80.83% # Class of committed instruction (Count)
system.cpu.commit.committedInstType_0::SimdShaSigma2            0      0.00%     80.83% # Class of committed instruction (Count)
system.cpu.commit.committedInstType_0::SimdShaSigma3            0      0.00%     80.83% # Class of committed instruction (Count)
system.cpu.commit.committedInstType_0::SimdPredAlu            0      0.00%     80.83% # Class of committed instruction (Count)
system.cpu.commit.committedInstType_0::MemRead    120667805     10.25%     91.07% # Class of committed instruction (Count)
system.cpu.commit.committedInstType_0::MemWrite    105121302      8.93%    100.00% # Class of committed instruction (Count)
system.cpu.commit.committedInstType_0::FloatMemRead            0      0.00%    100.00% # Class of committed instruction (Count)
system.cpu.commit.committedInstType_0::FloatMemWrite            0      0.00%    100.00% # Class of committed instruction (Count)
system.cpu.commit.committedInstType_0::IprAccess            0      0.00%    100.00% # Class of committed instruction (Count)
system.cpu.commit.committedInstType_0::InstPrefetch            0      0.00%    100.00% # Class of committed instruction (Count)
system.cpu.commit.committedInstType_0::total   1177819171                       # Class of committed instruction (Count)
system.cpu.commit.commitEligibleSamples      61626316                       # number cycles where commit BW limit reached (Cycle)
system.cpu.dcache.demandHits::cpu.data      213303742                       # number of demand (read+write) hits (Count)
system.cpu.dcache.demandHits::total         213303742                       # number of demand (read+write) hits (Count)
system.cpu.dcache.overallHits::cpu.data     213303742                       # number of overall hits (Count)
system.cpu.dcache.overallHits::total        213303742                       # number of overall hits (Count)
system.cpu.dcache.demandMisses::cpu.data      3628704                       # number of demand (read+write) misses (Count)
system.cpu.dcache.demandMisses::total         3628704                       # number of demand (read+write) misses (Count)
system.cpu.dcache.overallMisses::cpu.data      3628704                       # number of overall misses (Count)
system.cpu.dcache.overallMisses::total        3628704                       # number of overall misses (Count)
system.cpu.dcache.demandMissLatency::cpu.data 262802394498                       # number of demand (read+write) miss ticks (Tick)
system.cpu.dcache.demandMissLatency::total 262802394498                       # number of demand (read+write) miss ticks (Tick)
system.cpu.dcache.overallMissLatency::cpu.data 262802394498                       # number of overall miss ticks (Tick)
system.cpu.dcache.overallMissLatency::total 262802394498                       # number of overall miss ticks (Tick)
system.cpu.dcache.demandAccesses::cpu.data    216932446                       # number of demand (read+write) accesses (Count)
system.cpu.dcache.demandAccesses::total     216932446                       # number of demand (read+write) accesses (Count)
system.cpu.dcache.overallAccesses::cpu.data    216932446                       # number of overall (read+write) accesses (Count)
system.cpu.dcache.overallAccesses::total    216932446                       # number of overall (read+write) accesses (Count)
system.cpu.dcache.demandMissRate::cpu.data     0.016727                       # miss rate for demand accesses (Ratio)
system.cpu.dcache.demandMissRate::total      0.016727                       # miss rate for demand accesses (Ratio)
system.cpu.dcache.overallMissRate::cpu.data     0.016727                       # miss rate for overall accesses (Ratio)
system.cpu.dcache.overallMissRate::total     0.016727                       # miss rate for overall accesses (Ratio)
system.cpu.dcache.demandAvgMissLatency::cpu.data 72423.210738                       # average overall miss latency in ticks ((Tick/Count))
system.cpu.dcache.demandAvgMissLatency::total 72423.210738                       # average overall miss latency in ticks ((Tick/Count))
system.cpu.dcache.overallAvgMissLatency::cpu.data 72423.210738                       # average overall miss latency ((Tick/Count))
system.cpu.dcache.overallAvgMissLatency::total 72423.210738                       # average overall miss latency ((Tick/Count))
system.cpu.dcache.blockedCycles::no_mshrs          399                       # number of cycles access was blocked (Cycle)
system.cpu.dcache.blockedCycles::no_targets            0                       # number of cycles access was blocked (Cycle)
system.cpu.dcache.blockedCauses::no_mshrs           10                       # number of times access was blocked (Count)
system.cpu.dcache.blockedCauses::no_targets            0                       # number of times access was blocked (Count)
system.cpu.dcache.avgBlocked::no_mshrs      39.900000                       # average number of cycles each access was blocked ((Cycle/Count))
system.cpu.dcache.avgBlocked::no_targets          nan                       # average number of cycles each access was blocked ((Cycle/Count))
system.cpu.dcache.writebacks::writebacks       527204                       # number of writebacks (Count)
system.cpu.dcache.writebacks::total            527204                       # number of writebacks (Count)
system.cpu.dcache.demandMshrHits::cpu.data      1579277                       # number of demand (read+write) MSHR hits (Count)
system.cpu.dcache.demandMshrHits::total       1579277                       # number of demand (read+write) MSHR hits (Count)
system.cpu.dcache.overallMshrHits::cpu.data      1579277                       # number of overall MSHR hits (Count)
system.cpu.dcache.overallMshrHits::total      1579277                       # number of overall MSHR hits (Count)
system.cpu.dcache.demandMshrMisses::cpu.data      2049427                       # number of demand (read+write) MSHR misses (Count)
system.cpu.dcache.demandMshrMisses::total      2049427                       # number of demand (read+write) MSHR misses (Count)
system.cpu.dcache.overallMshrMisses::cpu.data      2049427                       # number of overall MSHR misses (Count)
system.cpu.dcache.overallMshrMisses::total      2049427                       # number of overall MSHR misses (Count)
system.cpu.dcache.demandMshrMissLatency::cpu.data 176927069999                       # number of demand (read+write) MSHR miss ticks (Tick)
system.cpu.dcache.demandMshrMissLatency::total 176927069999                       # number of demand (read+write) MSHR miss ticks (Tick)
system.cpu.dcache.overallMshrMissLatency::cpu.data 176927069999                       # number of overall MSHR miss ticks (Tick)
system.cpu.dcache.overallMshrMissLatency::total 176927069999                       # number of overall MSHR miss ticks (Tick)
system.cpu.dcache.demandMshrMissRate::cpu.data     0.009447                       # mshr miss ratio for demand accesses (Ratio)
system.cpu.dcache.demandMshrMissRate::total     0.009447                       # mshr miss ratio for demand accesses (Ratio)
system.cpu.dcache.overallMshrMissRate::cpu.data     0.009447                       # mshr miss ratio for overall accesses (Ratio)
system.cpu.dcache.overallMshrMissRate::total     0.009447                       # mshr miss ratio for overall accesses (Ratio)
system.cpu.dcache.demandAvgMshrMissLatency::cpu.data 86330.018097                       # average overall mshr miss latency ((Tick/Count))
system.cpu.dcache.demandAvgMshrMissLatency::total 86330.018097                       # average overall mshr miss latency ((Tick/Count))
system.cpu.dcache.overallAvgMshrMissLatency::cpu.data 86330.018097                       # average overall mshr miss latency ((Tick/Count))
system.cpu.dcache.overallAvgMshrMissLatency::total 86330.018097                       # average overall mshr miss latency ((Tick/Count))
system.cpu.dcache.replacements                2048915                       # number of replacements (Count)
system.cpu.dcache.LoadLockedReq.hits::cpu.data           46                       # number of LoadLockedReq hits (Count)
system.cpu.dcache.LoadLockedReq.hits::total           46                       # number of LoadLockedReq hits (Count)
system.cpu.dcache.LoadLockedReq.misses::cpu.data            3                       # number of LoadLockedReq misses (Count)
system.cpu.dcache.LoadLockedReq.misses::total            3                       # number of LoadLockedReq misses (Count)
system.cpu.dcache.LoadLockedReq.missLatency::cpu.data       125500                       # number of LoadLockedReq miss ticks (Tick)
system.cpu.dcache.LoadLockedReq.missLatency::total       125500                       # number of LoadLockedReq miss ticks (Tick)
system.cpu.dcache.LoadLockedReq.accesses::cpu.data           49                       # number of LoadLockedReq accesses(hits+misses) (Count)
system.cpu.dcache.LoadLockedReq.accesses::total           49                       # number of LoadLockedReq accesses(hits+misses) (Count)
system.cpu.dcache.LoadLockedReq.missRate::cpu.data     0.061224                       # miss rate for LoadLockedReq accesses (Ratio)
system.cpu.dcache.LoadLockedReq.missRate::total     0.061224                       # miss rate for LoadLockedReq accesses (Ratio)
system.cpu.dcache.LoadLockedReq.avgMissLatency::cpu.data 41833.333333                       # average LoadLockedReq miss latency ((Tick/Count))
system.cpu.dcache.LoadLockedReq.avgMissLatency::total 41833.333333                       # average LoadLockedReq miss latency ((Tick/Count))
system.cpu.dcache.LoadLockedReq.mshrHits::cpu.data            3                       # number of LoadLockedReq MSHR hits (Count)
system.cpu.dcache.LoadLockedReq.mshrHits::total            3                       # number of LoadLockedReq MSHR hits (Count)
system.cpu.dcache.ReadReq.hits::cpu.data    110285812                       # number of ReadReq hits (Count)
system.cpu.dcache.ReadReq.hits::total       110285812                       # number of ReadReq hits (Count)
system.cpu.dcache.ReadReq.misses::cpu.data      1525388                       # number of ReadReq misses (Count)
system.cpu.dcache.ReadReq.misses::total       1525388                       # number of ReadReq misses (Count)
system.cpu.dcache.ReadReq.missLatency::cpu.data 138857270000                       # number of ReadReq miss ticks (Tick)
system.cpu.dcache.ReadReq.missLatency::total 138857270000                       # number of ReadReq miss ticks (Tick)
system.cpu.dcache.ReadReq.accesses::cpu.data    111811200                       # number of ReadReq accesses(hits+misses) (Count)
system.cpu.dcache.ReadReq.accesses::total    111811200                       # number of ReadReq accesses(hits+misses) (Count)
system.cpu.dcache.ReadReq.missRate::cpu.data     0.013643                       # miss rate for ReadReq accesses (Ratio)
system.cpu.dcache.ReadReq.missRate::total     0.013643                       # miss rate for ReadReq accesses (Ratio)
system.cpu.dcache.ReadReq.avgMissLatency::cpu.data 91030.786921                       # average ReadReq miss latency ((Tick/Count))
system.cpu.dcache.ReadReq.avgMissLatency::total 91030.786921                       # average ReadReq miss latency ((Tick/Count))
system.cpu.dcache.ReadReq.mshrHits::cpu.data         3212                       # number of ReadReq MSHR hits (Count)
system.cpu.dcache.ReadReq.mshrHits::total         3212                       # number of ReadReq MSHR hits (Count)
system.cpu.dcache.ReadReq.mshrMisses::cpu.data      1522176                       # number of ReadReq MSHR misses (Count)
system.cpu.dcache.ReadReq.mshrMisses::total      1522176                       # number of ReadReq MSHR misses (Count)
system.cpu.dcache.ReadReq.mshrMissLatency::cpu.data 137273491500                       # number of ReadReq MSHR miss ticks (Tick)
system.cpu.dcache.ReadReq.mshrMissLatency::total 137273491500                       # number of ReadReq MSHR miss ticks (Tick)
system.cpu.dcache.ReadReq.mshrMissRate::cpu.data     0.013614                       # mshr miss rate for ReadReq accesses (Ratio)
system.cpu.dcache.ReadReq.mshrMissRate::total     0.013614                       # mshr miss rate for ReadReq accesses (Ratio)
system.cpu.dcache.ReadReq.avgMshrMissLatency::cpu.data 90182.404334                       # average ReadReq mshr miss latency ((Tick/Count))
system.cpu.dcache.ReadReq.avgMshrMissLatency::total 90182.404334                       # average ReadReq mshr miss latency ((Tick/Count))
system.cpu.dcache.StoreCondReq.hits::cpu.data           41                       # number of StoreCondReq hits (Count)
system.cpu.dcache.StoreCondReq.hits::total           41                       # number of StoreCondReq hits (Count)
system.cpu.dcache.StoreCondReq.accesses::cpu.data           41                       # number of StoreCondReq accesses(hits+misses) (Count)
system.cpu.dcache.StoreCondReq.accesses::total           41                       # number of StoreCondReq accesses(hits+misses) (Count)
system.cpu.dcache.WriteReq.hits::cpu.data    103017930                       # number of WriteReq hits (Count)
system.cpu.dcache.WriteReq.hits::total      103017930                       # number of WriteReq hits (Count)
system.cpu.dcache.WriteReq.misses::cpu.data      2103316                       # number of WriteReq misses (Count)
system.cpu.dcache.WriteReq.misses::total      2103316                       # number of WriteReq misses (Count)
system.cpu.dcache.WriteReq.missLatency::cpu.data 123945124498                       # number of WriteReq miss ticks (Tick)
system.cpu.dcache.WriteReq.missLatency::total 123945124498                       # number of WriteReq miss ticks (Tick)
system.cpu.dcache.WriteReq.accesses::cpu.data    105121246                       # number of WriteReq accesses(hits+misses) (Count)
system.cpu.dcache.WriteReq.accesses::total    105121246                       # number of WriteReq accesses(hits+misses) (Count)
system.cpu.dcache.WriteReq.missRate::cpu.data     0.020008                       # miss rate for WriteReq accesses (Ratio)
system.cpu.dcache.WriteReq.missRate::total     0.020008                       # miss rate for WriteReq accesses (Ratio)
system.cpu.dcache.WriteReq.avgMissLatency::cpu.data 58928.437048                       # average WriteReq miss latency ((Tick/Count))
system.cpu.dcache.WriteReq.avgMissLatency::total 58928.437048                       # average WriteReq miss latency ((Tick/Count))
system.cpu.dcache.WriteReq.mshrHits::cpu.data      1576065                       # number of WriteReq MSHR hits (Count)
system.cpu.dcache.WriteReq.mshrHits::total      1576065                       # number of WriteReq MSHR hits (Count)
system.cpu.dcache.WriteReq.mshrMisses::cpu.data       527251                       # number of WriteReq MSHR misses (Count)
system.cpu.dcache.WriteReq.mshrMisses::total       527251                       # number of WriteReq MSHR misses (Count)
system.cpu.dcache.WriteReq.mshrMissLatency::cpu.data  39653578499                       # number of WriteReq MSHR miss ticks (Tick)
system.cpu.dcache.WriteReq.mshrMissLatency::total  39653578499                       # number of WriteReq MSHR miss ticks (Tick)
system.cpu.dcache.WriteReq.mshrMissRate::cpu.data     0.005016                       # mshr miss rate for WriteReq accesses (Ratio)
system.cpu.dcache.WriteReq.mshrMissRate::total     0.005016                       # mshr miss rate for WriteReq accesses (Ratio)
system.cpu.dcache.WriteReq.avgMshrMissLatency::cpu.data 75208.161765                       # average WriteReq mshr miss latency ((Tick/Count))
system.cpu.dcache.WriteReq.avgMshrMissLatency::total 75208.161765                       # average WriteReq mshr miss latency ((Tick/Count))
system.cpu.dcache.power_state.pwrStateResidencyTicks::UNDEFINED 383880045000                       # Cumulative time (in ticks) in various power states (Tick)
system.cpu.dcache.tags.tagsInUse           511.901011                       # Average ticks per tags in use ((Tick/Count))
system.cpu.dcache.tags.totalRefs            215353256                       # Total number of references to valid blocks. (Count)
system.cpu.dcache.tags.sampledRefs            2049427                       # Sample count of references to valid blocks. (Count)
system.cpu.dcache.tags.avgRefs             105.079740                       # Average number of references to valid blocks. ((Count/Count))
system.cpu.dcache.tags.warmupTick              148500                       # The tick when the warmup percentage was hit. (Tick)
system.cpu.dcache.tags.occupancies::cpu.data   511.901011                       # Average occupied blocks per tick, per requestor ((Count/Tick))
system.cpu.dcache.tags.avgOccs::cpu.data     0.999807                       # Average percentage of cache occupancy ((Ratio/Tick))
system.cpu.dcache.tags.avgOccs::total        0.999807                       # Average percentage of cache occupancy ((Ratio/Tick))
system.cpu.dcache.tags.occupanciesTaskId::1024          512                       # Occupied blocks per task id (Count)
system.cpu.dcache.tags.ageTaskId_1024::0            3                       # Occupied blocks per task id, per block age (Count)
system.cpu.dcache.tags.ageTaskId_1024::2            5                       # Occupied blocks per task id, per block age (Count)
system.cpu.dcache.tags.ageTaskId_1024::3           28                       # Occupied blocks per task id, per block age (Count)
system.cpu.dcache.tags.ageTaskId_1024::4          476                       # Occupied blocks per task id, per block age (Count)
system.cpu.dcache.tags.ratioOccsTaskId::1024            1                       # Ratio of occupied blocks and all blocks, per task id (Ratio)
system.cpu.dcache.tags.tagAccesses          435914499                       # Number of tag accesses (Count)
system.cpu.dcache.tags.dataAccesses         435914499                       # Number of data accesses (Count)
system.cpu.dcache.tags.power_state.pwrStateResidencyTicks::UNDEFINED 383880045000                       # Cumulative time (in ticks) in various power states (Tick)
system.cpu.decode.idleCycles                135376056                       # Number of cycles decode is idle (Cycle)
system.cpu.decode.blockedCycles             386931297                       # Number of cycles decode is blocked (Cycle)
system.cpu.decode.runCycles                 216030636                       # Number of cycles decode is running (Cycle)
system.cpu.decode.unblockCycles              23735783                       # Number of cycles decode is unblocking (Cycle)
system.cpu.decode.squashCycles                5666134                       # Number of cycles decode is squashing (Cycle)
system.cpu.decode.branchResolved             85513632                       # Number of times decode resolved a branch (Count)
system.cpu.decode.branchMispred                   217                       # Number of times decode detected a branch misprediction (Count)
system.cpu.decode.decodedInsts             1471871317                       # Number of instructions handled by decode (Count)
system.cpu.decode.squashedInsts                   720                       # Number of squashed instructions handled by decode (Count)
system.cpu.fetch.icacheStallCycles          183689045                       # Number of cycles fetch is stalled on an Icache miss (Cycle)
system.cpu.fetch.insts                     1302038461                       # Number of instructions fetch has processed (Count)
system.cpu.fetch.branches                   177613399                       # Number of branches that fetch encountered (Count)
system.cpu.fetch.predictedBranches          120795096                       # Number of branches that fetch has predicted taken (Count)
system.cpu.fetch.cycles                     572890851                       # Number of cycles fetch has run and was not squashing or blocked (Cycle)
system.cpu.fetch.squashCycles                11332682                       # Number of cycles fetch has spent squashing (Cycle)
system.cpu.fetch.miscStallCycles              1558558                       # Number of cycles fetch has spent waiting on interrupts, or bad addresses, or out of MSHRs (Cycle)
system.cpu.fetch.pendingTrapStallCycles       3935067                       # Number of stall cycles due to pending traps (Cycle)
system.cpu.fetch.icacheWaitRetryStallCycles           44                       # Number of stall cycles due to full MSHR (Cycle)
system.cpu.fetch.cacheLines                 180972569                       # Number of cache lines fetched (Count)
system.cpu.fetch.icacheSquashes               1290206                       # Number of outstanding Icache misses that were squashed (Count)
system.cpu.fetch.nisnDist::samples          767739906                       # Number of instructions fetched each cycle (Total) (Count)
system.cpu.fetch.nisnDist::mean              1.987995                       # Number of instructions fetched each cycle (Total) (Count)
system.cpu.fetch.nisnDist::stdev             3.061370                       # Number of instructions fetched each cycle (Total) (Count)
system.cpu.fetch.nisnDist::underflows               0      0.00%      0.00% # Number of instructions fetched each cycle (Total) (Count)
system.cpu.fetch.nisnDist::0                495989079     64.60%     64.60% # Number of instructions fetched each cycle (Total) (Count)
system.cpu.fetch.nisnDist::1                 22155382      2.89%     67.49% # Number of instructions fetched each cycle (Total) (Count)
system.cpu.fetch.nisnDist::2                 17045656      2.22%     69.71% # Number of instructions fetched each cycle (Total) (Count)
system.cpu.fetch.nisnDist::3                 34784099      4.53%     74.24% # Number of instructions fetched each cycle (Total) (Count)
system.cpu.fetch.nisnDist::4                 15855909      2.07%     76.31% # Number of instructions fetched each cycle (Total) (Count)
system.cpu.fetch.nisnDist::5                 29515890      3.84%     80.15% # Number of instructions fetched each cycle (Total) (Count)
system.cpu.fetch.nisnDist::6                 24303825      3.17%     83.32% # Number of instructions fetched each cycle (Total) (Count)
system.cpu.fetch.nisnDist::7                 15882426      2.07%     85.38% # Number of instructions fetched each cycle (Total) (Count)
system.cpu.fetch.nisnDist::8                112207640     14.62%    100.00% # Number of instructions fetched each cycle (Total) (Count)
system.cpu.fetch.nisnDist::overflows                0      0.00%    100.00% # Number of instructions fetched each cycle (Total) (Count)
system.cpu.fetch.nisnDist::min_value                0                       # Number of instructions fetched each cycle (Total) (Count)
system.cpu.fetch.nisnDist::max_value                8                       # Number of instructions fetched each cycle (Total) (Count)
system.cpu.fetch.nisnDist::total            767739906                       # Number of instructions fetched each cycle (Total) (Count)
system.cpu.fetch.branchRate                  0.231340                       # Number of branch fetches per cycle (Ratio)
system.cpu.fetch.rate                        1.695892                       # Number of inst fetches per cycle ((Count/Cycle))
system.cpu.icache.demandHits::cpu.inst      180972075                       # number of demand (read+write) hits (Count)
system.cpu.icache.demandHits::total         180972075                       # number of demand (read+write) hits (Count)
system.cpu.icache.overallHits::cpu.inst     180972075                       # number of overall hits (Count)
system.cpu.icache.overallHits::total        180972075                       # number of overall hits (Count)
system.cpu.icache.demandMisses::cpu.inst          493                       # number of demand (read+write) misses (Count)
system.cpu.icache.demandMisses::total             493                       # number of demand (read+write) misses (Count)
system.cpu.icache.overallMisses::cpu.inst          493                       # number of overall misses (Count)
system.cpu.icache.overallMisses::total            493                       # number of overall misses (Count)
system.cpu.icache.demandMissLatency::cpu.inst     32452499                       # number of demand (read+write) miss ticks (Tick)
system.cpu.icache.demandMissLatency::total     32452499                       # number of demand (read+write) miss ticks (Tick)
system.cpu.icache.overallMissLatency::cpu.inst     32452499                       # number of overall miss ticks (Tick)
system.cpu.icache.overallMissLatency::total     32452499                       # number of overall miss ticks (Tick)
system.cpu.icache.demandAccesses::cpu.inst    180972568                       # number of demand (read+write) accesses (Count)
system.cpu.icache.demandAccesses::total     180972568                       # number of demand (read+write) accesses (Count)
system.cpu.icache.overallAccesses::cpu.inst    180972568                       # number of overall (read+write) accesses (Count)
system.cpu.icache.overallAccesses::total    180972568                       # number of overall (read+write) accesses (Count)
system.cpu.icache.demandMissRate::cpu.inst     0.000003                       # miss rate for demand accesses (Ratio)
system.cpu.icache.demandMissRate::total      0.000003                       # miss rate for demand accesses (Ratio)
system.cpu.icache.overallMissRate::cpu.inst     0.000003                       # miss rate for overall accesses (Ratio)
system.cpu.icache.overallMissRate::total     0.000003                       # miss rate for overall accesses (Ratio)
system.cpu.icache.demandAvgMissLatency::cpu.inst 65826.569980                       # average overall miss latency in ticks ((Tick/Count))
system.cpu.icache.demandAvgMissLatency::total 65826.569980                       # average overall miss latency in ticks ((Tick/Count))
system.cpu.icache.overallAvgMissLatency::cpu.inst 65826.569980                       # average overall miss latency ((Tick/Count))
system.cpu.icache.overallAvgMissLatency::total 65826.569980                       # average overall miss latency ((Tick/Count))
system.cpu.icache.blockedCycles::no_mshrs          365                       # number of cycles access was blocked (Cycle)
system.cpu.icache.blockedCycles::no_targets            0                       # number of cycles access was blocked (Cycle)
system.cpu.icache.blockedCauses::no_mshrs           13                       # number of times access was blocked (Count)
system.cpu.icache.blockedCauses::no_targets            0                       # number of times access was blocked (Count)
system.cpu.icache.avgBlocked::no_mshrs      28.076923                       # average number of cycles each access was blocked ((Cycle/Count))
system.cpu.icache.avgBlocked::no_targets          nan                       # average number of cycles each access was blocked ((Cycle/Count))
system.cpu.icache.demandMshrHits::cpu.inst          115                       # number of demand (read+write) MSHR hits (Count)
system.cpu.icache.demandMshrHits::total           115                       # number of demand (read+write) MSHR hits (Count)
system.cpu.icache.overallMshrHits::cpu.inst          115                       # number of overall MSHR hits (Count)
system.cpu.icache.overallMshrHits::total          115                       # number of overall MSHR hits (Count)
system.cpu.icache.demandMshrMisses::cpu.inst          378                       # number of demand (read+write) MSHR misses (Count)
system.cpu.icache.demandMshrMisses::total          378                       # number of demand (read+write) MSHR misses (Count)
system.cpu.icache.overallMshrMisses::cpu.inst          378                       # number of overall MSHR misses (Count)
system.cpu.icache.overallMshrMisses::total          378                       # number of overall MSHR misses (Count)
system.cpu.icache.demandMshrMissLatency::cpu.inst     25587999                       # number of demand (read+write) MSHR miss ticks (Tick)
system.cpu.icache.demandMshrMissLatency::total     25587999                       # number of demand (read+write) MSHR miss ticks (Tick)
system.cpu.icache.overallMshrMissLatency::cpu.inst     25587999                       # number of overall MSHR miss ticks (Tick)
system.cpu.icache.overallMshrMissLatency::total     25587999                       # number of overall MSHR miss ticks (Tick)
system.cpu.icache.demandMshrMissRate::cpu.inst     0.000002                       # mshr miss ratio for demand accesses (Ratio)
system.cpu.icache.demandMshrMissRate::total     0.000002                       # mshr miss ratio for demand accesses (Ratio)
system.cpu.icache.overallMshrMissRate::cpu.inst     0.000002                       # mshr miss ratio for overall accesses (Ratio)
system.cpu.icache.overallMshrMissRate::total     0.000002                       # mshr miss ratio for overall accesses (Ratio)
system.cpu.icache.demandAvgMshrMissLatency::cpu.inst 67693.119048                       # average overall mshr miss latency ((Tick/Count))
system.cpu.icache.demandAvgMshrMissLatency::total 67693.119048                       # average overall mshr miss latency ((Tick/Count))
system.cpu.icache.overallAvgMshrMissLatency::cpu.inst 67693.119048                       # average overall mshr miss latency ((Tick/Count))
system.cpu.icache.overallAvgMshrMissLatency::total 67693.119048                       # average overall mshr miss latency ((Tick/Count))
system.cpu.icache.replacements                     67                       # number of replacements (Count)
system.cpu.icache.ReadReq.hits::cpu.inst    180972075                       # number of ReadReq hits (Count)
system.cpu.icache.ReadReq.hits::total       180972075                       # number of ReadReq hits (Count)
system.cpu.icache.ReadReq.misses::cpu.inst          493                       # number of ReadReq misses (Count)
system.cpu.icache.ReadReq.misses::total           493                       # number of ReadReq misses (Count)
system.cpu.icache.ReadReq.missLatency::cpu.inst     32452499                       # number of ReadReq miss ticks (Tick)
system.cpu.icache.ReadReq.missLatency::total     32452499                       # number of ReadReq miss ticks (Tick)
system.cpu.icache.ReadReq.accesses::cpu.inst    180972568                       # number of ReadReq accesses(hits+misses) (Count)
system.cpu.icache.ReadReq.accesses::total    180972568                       # number of ReadReq accesses(hits+misses) (Count)
system.cpu.icache.ReadReq.missRate::cpu.inst     0.000003                       # miss rate for ReadReq accesses (Ratio)
system.cpu.icache.ReadReq.missRate::total     0.000003                       # miss rate for ReadReq accesses (Ratio)
system.cpu.icache.ReadReq.avgMissLatency::cpu.inst 65826.569980                       # average ReadReq miss latency ((Tick/Count))
system.cpu.icache.ReadReq.avgMissLatency::total 65826.569980                       # average ReadReq miss latency ((Tick/Count))
system.cpu.icache.ReadReq.mshrHits::cpu.inst          115                       # number of ReadReq MSHR hits (Count)
system.cpu.icache.ReadReq.mshrHits::total          115                       # number of ReadReq MSHR hits (Count)
system.cpu.icache.ReadReq.mshrMisses::cpu.inst          378                       # number of ReadReq MSHR misses (Count)
system.cpu.icache.ReadReq.mshrMisses::total          378                       # number of ReadReq MSHR misses (Count)
system.cpu.icache.ReadReq.mshrMissLatency::cpu.inst     25587999                       # number of ReadReq MSHR miss ticks (Tick)
system.cpu.icache.ReadReq.mshrMissLatency::total     25587999                       # number of ReadReq MSHR miss ticks (Tick)
system.cpu.icache.ReadReq.mshrMissRate::cpu.inst     0.000002                       # mshr miss rate for ReadReq accesses (Ratio)
system.cpu.icache.ReadReq.mshrMissRate::total     0.000002                       # mshr miss rate for ReadReq accesses (Ratio)
system.cpu.icache.ReadReq.avgMshrMissLatency::cpu.inst 67693.119048                       # average ReadReq mshr miss latency ((Tick/Count))
system.cpu.icache.ReadReq.avgMshrMissLatency::total 67693.119048                       # average ReadReq mshr miss latency ((Tick/Count))
system.cpu.icache.power_state.pwrStateResidencyTicks::UNDEFINED 383880045000                       # Cumulative time (in ticks) in various power states (Tick)
system.cpu.icache.tags.tagsInUse           303.352758                       # Average ticks per tags in use ((Tick/Count))
system.cpu.icache.tags.totalRefs            180972453                       # Total number of references to valid blocks. (Count)
system.cpu.icache.tags.sampledRefs                378                       # Sample count of references to valid blocks. (Count)
system.cpu.icache.tags.avgRefs           478763.103175                       # Average number of references to valid blocks. ((Count/Count))
system.cpu.icache.tags.warmupTick               81500                       # The tick when the warmup percentage was hit. (Tick)
system.cpu.icache.tags.occupancies::cpu.inst   303.352758                       # Average occupied blocks per tick, per requestor ((Count/Tick))
system.cpu.icache.tags.avgOccs::cpu.inst     0.592486                       # Average percentage of cache occupancy ((Ratio/Tick))
system.cpu.icache.tags.avgOccs::total        0.592486                       # Average percentage of cache occupancy ((Ratio/Tick))
system.cpu.icache.tags.occupanciesTaskId::1024          311                       # Occupied blocks per task id (Count)
system.cpu.icache.tags.ageTaskId_1024::4          311                       # Occupied blocks per task id, per block age (Count)
system.cpu.icache.tags.ratioOccsTaskId::1024     0.607422                       # Ratio of occupied blocks and all blocks, per task id (Ratio)
system.cpu.icache.tags.tagAccesses          361945514                       # Number of tag accesses (Count)
system.cpu.icache.tags.dataAccesses         361945514                       # Number of data accesses (Count)
system.cpu.icache.tags.power_state.pwrStateResidencyTicks::UNDEFINED 383880045000                       # Cumulative time (in ticks) in various power states (Tick)
system.cpu.iew.idleCycles                           0                       # Number of cycles IEW is idle (Cycle)
system.cpu.iew.squashCycles                   5666134                       # Number of cycles IEW is squashing (Cycle)
system.cpu.iew.blockCycles                  296555090                       # Number of cycles IEW is blocking (Cycle)
system.cpu.iew.unblockCycles                  3636370                       # Number of cycles IEW is unblocking (Cycle)
system.cpu.iew.dispatchedInsts             1431918148                       # Number of instructions dispatched to IQ (Count)
system.cpu.iew.dispSquashedInsts                11165                       # Number of squashed instructions skipped by dispatch (Count)
system.cpu.iew.dispLoadInsts                143766195                       # Number of dispatched load instructions (Count)
system.cpu.iew.dispStoreInsts               121194508                       # Number of dispatched store instructions (Count)
system.cpu.iew.dispNonSpecInsts                    69                       # Number of dispatched non-speculative instructions (Count)
system.cpu.iew.iqFullEvents                   3003986                       # Number of times the IQ has become full, causing a stall (Count)
system.cpu.iew.lsqFullEvents                      881                       # Number of times the LSQ has become full, causing a stall (Count)
system.cpu.iew.memOrderViolationEvents          10638                       # Number of memory order violations (Count)
system.cpu.iew.predictedTakenIncorrect        4529467                       # Number of branches that were predicted taken incorrectly (Count)
system.cpu.iew.predictedNotTakenIncorrect      2493449                       # Number of branches that were predicted not taken incorrectly (Count)
system.cpu.iew.branchMispredicts              7022916                       # Number of branch mispredicts detected at execute (Count)
system.cpu.iew.instsToCommit               1261712437                       # Cumulative count of insts sent to commit (Count)
system.cpu.iew.writebackCount              1258739830                       # Cumulative count of insts written-back (Count)
system.cpu.iew.producerInst                 909164108                       # Number of instructions producing a value (Count)
system.cpu.iew.consumerInst                2506004534                       # Number of instructions consuming a value (Count)
system.cpu.iew.wbRate                        1.639496                       # Insts written-back per cycle ((Count/Cycle))
system.cpu.iew.wbFanout                      0.362794                       # Average fanout of values written-back ((Count/Count))
system.cpu.lsq0.forwLoads                    19378795                       # Number of loads that had data forwarded from stores (Count)
system.cpu.lsq0.squashedLoads                23098383                       # Number of loads squashed (Count)
system.cpu.lsq0.ignoredResponses                18406                       # Number of memory responses ignored because the instruction is squashed (Count)
system.cpu.lsq0.memOrderViolation               10638                       # Number of memory ordering violations (Count)
system.cpu.lsq0.squashedStores               16073203                       # Number of stores squashed (Count)
system.cpu.lsq0.rescheduledLoads             31587520                       # Number of loads that were rescheduled (Count)
system.cpu.lsq0.blockedByCache                      7                       # Number of times an access to memory failed due to the cache being blocked (Count)
system.cpu.lsq0.loadToUse::samples          120667805                       # Distribution of cycle latency between the first time a load is issued and its completion (Unspecified)
system.cpu.lsq0.loadToUse::mean              6.143472                       # Distribution of cycle latency between the first time a load is issued and its completion (Unspecified)
system.cpu.lsq0.loadToUse::stdev            22.095223                       # Distribution of cycle latency between the first time a load is issued and its completion (Unspecified)
system.cpu.lsq0.loadToUse::0-9              117339969     97.24%     97.24% # Distribution of cycle latency between the first time a load is issued and its completion (Unspecified)
system.cpu.lsq0.loadToUse::10-19              1800815      1.49%     98.73% # Distribution of cycle latency between the first time a load is issued and its completion (Unspecified)
system.cpu.lsq0.loadToUse::20-29                 5916      0.00%     98.74% # Distribution of cycle latency between the first time a load is issued and its completion (Unspecified)
system.cpu.lsq0.loadToUse::30-39                 1548      0.00%     98.74% # Distribution of cycle latency between the first time a load is issued and its completion (Unspecified)
system.cpu.lsq0.loadToUse::40-49                   38      0.00%     98.74% # Distribution of cycle latency between the first time a load is issued and its completion (Unspecified)
system.cpu.lsq0.loadToUse::50-59                    9      0.00%     98.74% # Distribution of cycle latency between the first time a load is issued and its completion (Unspecified)
system.cpu.lsq0.loadToUse::60-69                    2      0.00%     98.74% # Distribution of cycle latency between the first time a load is issued and its completion (Unspecified)
system.cpu.lsq0.loadToUse::80-89                    9      0.00%     98.74% # Distribution of cycle latency between the first time a load is issued and its completion (Unspecified)
system.cpu.lsq0.loadToUse::90-99                    7      0.00%     98.74% # Distribution of cycle latency between the first time a load is issued and its completion (Unspecified)
system.cpu.lsq0.loadToUse::100-109                  6      0.00%     98.74% # Distribution of cycle latency between the first time a load is issued and its completion (Unspecified)
system.cpu.lsq0.loadToUse::110-119                 11      0.00%     98.74% # Distribution of cycle latency between the first time a load is issued and its completion (Unspecified)
system.cpu.lsq0.loadToUse::120-129                 24      0.00%     98.74% # Distribution of cycle latency between the first time a load is issued and its completion (Unspecified)
system.cpu.lsq0.loadToUse::130-139                302      0.00%     98.74% # Distribution of cycle latency between the first time a load is issued and its completion (Unspecified)
system.cpu.lsq0.loadToUse::140-149                 35      0.00%     98.74% # Distribution of cycle latency between the first time a load is issued and its completion (Unspecified)
system.cpu.lsq0.loadToUse::150-159                 21      0.00%     98.74% # Distribution of cycle latency between the first time a load is issued and its completion (Unspecified)
system.cpu.lsq0.loadToUse::160-169             850368      0.70%     99.45% # Distribution of cycle latency between the first time a load is issued and its completion (Unspecified)
system.cpu.lsq0.loadToUse::170-179                282      0.00%     99.45% # Distribution of cycle latency between the first time a load is issued and its completion (Unspecified)
system.cpu.lsq0.loadToUse::180-189             640543      0.53%     99.98% # Distribution of cycle latency between the first time a load is issued and its completion (Unspecified)
system.cpu.lsq0.loadToUse::190-199                150      0.00%     99.98% # Distribution of cycle latency between the first time a load is issued and its completion (Unspecified)
system.cpu.lsq0.loadToUse::200-209                218      0.00%     99.98% # Distribution of cycle latency between the first time a load is issued and its completion (Unspecified)
system.cpu.lsq0.loadToUse::210-219                 14      0.00%     99.98% # Distribution of cycle latency between the first time a load is issued and its completion (Unspecified)
system.cpu.lsq0.loadToUse::220-229                 18      0.00%     99.98% # Distribution of cycle latency between the first time a load is issued and its completion (Unspecified)
[...]
system.mem_ctrl.dram.perBankRdBursts::7         63789                       # Per bank write bursts (Count)
system.mem_ctrl.dram.perBankRdBursts::8         63797                       # Per bank write bursts (Count)
system.mem_ctrl.dram.perBankRdBursts::9         63850                       # Per bank write bursts (Count)
system.mem_ctrl.dram.perBankRdBursts::10        63811                       # Per bank write bursts (Count)
system.mem_ctrl.dram.perBankRdBursts::11        63802                       # Per bank write bursts (Count)
system.mem_ctrl.dram.perBankRdBursts::12        63789                       # Per bank write bursts (Count)
system.mem_ctrl.dram.perBankRdBursts::13        63815                       # Per bank write bursts (Count)
system.mem_ctrl.dram.perBankRdBursts::14        63798                       # Per bank write bursts (Count)
system.mem_ctrl.dram.perBankRdBursts::15        63790                       # Per bank write bursts (Count)
system.mem_ctrl.dram.perBankRdBursts::16        63784                       # Per bank write bursts (Count)
system.mem_ctrl.dram.perBankRdBursts::17        63784                       # Per bank write bursts (Count)
system.mem_ctrl.dram.perBankRdBursts::18        63788                       # Per bank write bursts (Count)
system.mem_ctrl.dram.perBankRdBursts::19        63785                       # Per bank write bursts (Count)
system.mem_ctrl.dram.perBankRdBursts::20        63791                       # Per bank write bursts (Count)
system.mem_ctrl.dram.perBankRdBursts::21        63784                       # Per bank write bursts (Count)
system.mem_ctrl.dram.perBankRdBursts::22        63784                       # Per bank write bursts (Count)
system.mem_ctrl.dram.perBankRdBursts::23        63784                       # Per bank write bursts (Count)
system.mem_ctrl.dram.perBankRdBursts::24        63784                       # Per bank write bursts (Count)
system.mem_ctrl.dram.perBankRdBursts::25        63784                       # Per bank write bursts (Count)
system.mem_ctrl.dram.perBankRdBursts::26        63787                       # Per bank write bursts (Count)
system.mem_ctrl.dram.perBankRdBursts::27        63785                       # Per bank write bursts (Count)
system.mem_ctrl.dram.perBankRdBursts::28        63784                       # Per bank write bursts (Count)
system.mem_ctrl.dram.perBankRdBursts::29        63821                       # Per bank write bursts (Count)
system.mem_ctrl.dram.perBankRdBursts::30        63798                       # Per bank write bursts (Count)
system.mem_ctrl.dram.perBankRdBursts::31        63828                       # Per bank write bursts (Count)
system.mem_ctrl.dram.perBankWrBursts::0         16394                       # Per bank write bursts (Count)
system.mem_ctrl.dram.perBankWrBursts::1         16386                       # Per bank write bursts (Count)
system.mem_ctrl.dram.perBankWrBursts::2         16513                       # Per bank write bursts (Count)
system.mem_ctrl.dram.perBankWrBursts::3         16262                       # Per bank write bursts (Count)
system.mem_ctrl.dram.perBankWrBursts::4         16384                       # Per bank write bursts (Count)
system.mem_ctrl.dram.perBankWrBursts::5         16384                       # Per bank write bursts (Count)
system.mem_ctrl.dram.perBankWrBursts::6         16384                       # Per bank write bursts (Count)
system.mem_ctrl.dram.perBankWrBursts::7         16384                       # Per bank write bursts (Count)
system.mem_ctrl.dram.perBankWrBursts::8         16384                       # Per bank write bursts (Count)
system.mem_ctrl.dram.perBankWrBursts::9         16384                       # Per bank write bursts (Count)
system.mem_ctrl.dram.perBankWrBursts::10        16384                       # Per bank write bursts (Count)
system.mem_ctrl.dram.perBankWrBursts::11        16384                       # Per bank write bursts (Count)
system.mem_ctrl.dram.perBankWrBursts::12        16384                       # Per bank write bursts (Count)
system.mem_ctrl.dram.perBankWrBursts::13        16384                       # Per bank write bursts (Count)
system.mem_ctrl.dram.perBankWrBursts::14        16384                       # Per bank write bursts (Count)
system.mem_ctrl.dram.perBankWrBursts::15        16384                       # Per bank write bursts (Count)
system.mem_ctrl.dram.perBankWrBursts::16        16384                       # Per bank write bursts (Count)
system.mem_ctrl.dram.perBankWrBursts::17        16384                       # Per bank write bursts (Count)
system.mem_ctrl.dram.perBankWrBursts::18        16384                       # Per bank write bursts (Count)
system.mem_ctrl.dram.perBankWrBursts::19        16384                       # Per bank write bursts (Count)
system.mem_ctrl.dram.perBankWrBursts::20        16384                       # Per bank write bursts (Count)
system.mem_ctrl.dram.perBankWrBursts::21        16384                       # Per bank write bursts (Count)
system.mem_ctrl.dram.perBankWrBursts::22        16384                       # Per bank write bursts (Count)
system.mem_ctrl.dram.perBankWrBursts::23        16384                       # Per bank write bursts (Count)
system.mem_ctrl.dram.perBankWrBursts::24        16384                       # Per bank write bursts (Count)
system.mem_ctrl.dram.perBankWrBursts::25        16384                       # Per bank write bursts (Count)
system.mem_ctrl.dram.perBankWrBursts::26        16384                       # Per bank write bursts (Count)
system.mem_ctrl.dram.perBankWrBursts::27        16384                       # Per bank write bursts (Count)
system.mem_ctrl.dram.perBankWrBursts::28        16384                       # Per bank write bursts (Count)
system.mem_ctrl.dram.perBankWrBursts::29        16413                       # Per bank write bursts (Count)
system.mem_ctrl.dram.perBankWrBursts::30        16397                       # Per bank write bursts (Count)
system.mem_ctrl.dram.perBankWrBursts::31        16394                       # Per bank write bursts (Count)
system.mem_ctrl.dram.totQLat              44636374436                       # Total ticks spent queuing (Tick)
system.mem_ctrl.dram.totBusLat             6809585076                       # Total ticks spent in databus transfers (Tick)
system.mem_ctrl.dram.totMemAccLat         80384652392                       # Total ticks spent from burst creation until serviced by the DRAM (Tick)
system.mem_ctrl.dram.avgQLat                 21841.04                       # Average queueing delay per DRAM burst ((Tick/Count))
system.mem_ctrl.dram.avgBusLat                3332.00                       # Average bus latency per DRAM burst ((Tick/Count))
system.mem_ctrl.dram.avgMemAccLat            39333.04                       # Average memory access latency per DRAM burst ((Tick/Count))
system.mem_ctrl.dram.readRowHits               461790                       # Number of row buffer hits during reads (Count)
system.mem_ctrl.dram.writeRowHits              464656                       # Number of row buffer hits during writes (Count)
system.mem_ctrl.dram.readRowHitRate             22.60                       # Row buffer hit rate for reads (Ratio)
system.mem_ctrl.dram.writeRowHitRate            88.61                       # Row buffer hit rate for writes (Ratio)
system.mem_ctrl.dram.bytesPerActivate::samples      1641574                       # Bytes accessed per row activation (Byte)
system.mem_ctrl.dram.bytesPerActivate::mean   100.119325                       # Bytes accessed per row activation (Byte)
system.mem_ctrl.dram.bytesPerActivate::gmean    73.467840                       # Bytes accessed per row activation (Byte)
system.mem_ctrl.dram.bytesPerActivate::stdev   156.909626                       # Bytes accessed per row activation (Byte)
system.mem_ctrl.dram.bytesPerActivate::0-127      1529718     93.19%     93.19% # Bytes accessed per row activation (Byte)
system.mem_ctrl.dram.bytesPerActivate::128-255        21302      1.30%     94.48% # Bytes accessed per row activation (Byte)
system.mem_ctrl.dram.bytesPerActivate::256-383         7541      0.46%     94.94% # Bytes accessed per row activation (Byte)
system.mem_ctrl.dram.bytesPerActivate::384-511        18102      1.10%     96.05% # Bytes accessed per row activation (Byte)
system.mem_ctrl.dram.bytesPerActivate::512-639        10812      0.66%     96.70% # Bytes accessed per row activation (Byte)
system.mem_ctrl.dram.bytesPerActivate::640-767        14867      0.91%     97.61% # Bytes accessed per row activation (Byte)
system.mem_ctrl.dram.bytesPerActivate::768-895         9796      0.60%     98.21% # Bytes accessed per row activation (Byte)
system.mem_ctrl.dram.bytesPerActivate::896-1023         5959      0.36%     98.57% # Bytes accessed per row activation (Byte)
system.mem_ctrl.dram.bytesPerActivate::1024-1151        23477      1.43%    100.00% # Bytes accessed per row activation (Byte)
system.mem_ctrl.dram.bytesPerActivate::total      1641574                       # Bytes accessed per row activation (Byte)
system.mem_ctrl.dram.bytesRead              130796352                       # Total bytes read (Byte)
system.mem_ctrl.dram.bytesWritten            33558976                       # Total bytes written (Byte)
system.mem_ctrl.dram.avgRdBW               340.721936                       # Average DRAM read bandwidth in MiBytes/s ((Byte/Second))
system.mem_ctrl.dram.avgWrBW                87.420475                       # Average DRAM write bandwidth in MiBytes/s ((Byte/Second))
system.mem_ctrl.dram.peakBW                  19207.00                       # Theoretical peak bandwidth in MiByte/s ((Byte/Second))
system.mem_ctrl.dram.busUtil                     2.23                       # Data bus utilization in percentage (Ratio)
system.mem_ctrl.dram.busUtilRead                 1.77                       # Data bus utilization in percentage for reads (Ratio)
system.mem_ctrl.dram.busUtilWrite                0.46                       # Data bus utilization in percentage for writes (Ratio)
system.mem_ctrl.dram.pageHitRate                36.08                       # Row buffer hit rate, read and write combined (Ratio)
system.mem_ctrl.dram.power_state.pwrStateResidencyTicks::UNDEFINED 383880045000                       # Cumulative time (in ticks) in various power states (Tick)
system.mem_ctrl.dram.rank0.actEnergy     2562772080.959970                       # Energy for activate commands per rank (pJ) (Joule)
system.mem_ctrl.dram.rank0.preEnergy     3407106284.131124                       # Energy for precharge commands per rank (pJ) (Joule)
system.mem_ctrl.dram.rank0.readEnergy    4303221926.437875                       # Energy for read commands per rank (pJ) (Joule)
system.mem_ctrl.dram.rank0.writeEnergy   985338586.847808                       # Energy for write commands per rank (pJ) (Joule)
system.mem_ctrl.dram.rank0.refreshEnergy 68304658531.410576                       # Energy for refresh commands per rank (pJ) (Joule)
system.mem_ctrl.dram.rank0.actBackEnergy 243703414550.060822                       # Energy for active background per rank (pJ) (Joule)
system.mem_ctrl.dram.rank0.preBackEnergy 63344552711.706902                       # Energy for precharge background per rank (pJ) (Joule)
system.mem_ctrl.dram.rank0.actPowerDownEnergy            0                       # Energy for active power-down per rank (pJ) (Joule)
system.mem_ctrl.dram.rank0.prePowerDownEnergy            0                       # Energy for precharge power-down per rank (pJ) (Joule)
system.mem_ctrl.dram.rank0.selfRefreshEnergy            0                       # Energy for self refresh per rank (pJ) (Joule)
system.mem_ctrl.dram.rank0.totalEnergy   386611064671.610168                       # Total energy per rank (pJ) (Joule)
system.mem_ctrl.dram.rank0.averagePower   1007.114253                       # Core power per rank (mW) (Watt)
system.mem_ctrl.dram.rank0.totalIdleTime            0                       # Total Idle time Per DRAM Rank (Tick)
system.mem_ctrl.dram.rank0.pwrStateTime::IDLE  95674442724                       # Time in different power states (Tick)
system.mem_ctrl.dram.rank0.pwrStateTime::REF  17256400000                       # Time in different power states (Tick)
system.mem_ctrl.dram.rank0.pwrStateTime::SREF            0                       # Time in different power states (Tick)
system.mem_ctrl.dram.rank0.pwrStateTime::PRE_PDN            0                       # Time in different power states (Tick)
system.mem_ctrl.dram.rank0.pwrStateTime::ACT 270949202276                       # Time in different power states (Tick)
system.mem_ctrl.dram.rank0.pwrStateTime::ACT_PDN            0                       # Time in different power states (Tick)
system.mem_ctrl.dram.rank1.actEnergy     2556989914.751923                       # Energy for activate commands per rank (pJ) (Joule)
system.mem_ctrl.dram.rank1.preEnergy     3399418968.287916                       # Energy for precharge commands per rank (pJ) (Joule)
system.mem_ctrl.dram.rank1.readEnergy    4293198273.503459                       # Energy for read commands per rank (pJ) (Joule)
system.mem_ctrl.dram.rank1.writeEnergy   985462617.215810                       # Energy for write commands per rank (pJ) (Joule)
system.mem_ctrl.dram.rank1.refreshEnergy 68304658531.410576                       # Energy for refresh commands per rank (pJ) (Joule)
system.mem_ctrl.dram.rank1.actBackEnergy 243744563327.962158                       # Energy for active background per rank (pJ) (Joule)
system.mem_ctrl.dram.rank1.preBackEnergy 63312935571.624374                       # Energy for precharge background per rank (pJ) (Joule)
system.mem_ctrl.dram.rank1.actPowerDownEnergy            0                       # Energy for active power-down per rank (pJ) (Joule)
system.mem_ctrl.dram.rank1.prePowerDownEnergy            0                       # Energy for precharge power-down per rank (pJ) (Joule)
system.mem_ctrl.dram.rank1.selfRefreshEnergy            0                       # Energy for self refresh per rank (pJ) (Joule)
system.mem_ctrl.dram.rank1.totalEnergy   386597227204.809387                       # Total energy per rank (pJ) (Joule)
system.mem_ctrl.dram.rank1.averagePower   1007.078206                       # Core power per rank (mW) (Watt)
system.mem_ctrl.dram.rank1.totalIdleTime            0                       # Total Idle time Per DRAM Rank (Tick)
system.mem_ctrl.dram.rank1.pwrStateTime::IDLE  95625225098                       # Time in different power states (Tick)
system.mem_ctrl.dram.rank1.pwrStateTime::REF  17256400000                       # Time in different power states (Tick)
system.mem_ctrl.dram.rank1.pwrStateTime::SREF            0                       # Time in different power states (Tick)
system.mem_ctrl.dram.rank1.pwrStateTime::PRE_PDN            0                       # Time in different power states (Tick)
system.mem_ctrl.dram.rank1.pwrStateTime::ACT 270998419902                       # Time in different power states (Tick)
system.mem_ctrl.dram.rank1.pwrStateTime::ACT_PDN            0                       # Time in different power states (Tick)
system.mem_ctrl.power_state.pwrStateResidencyTicks::UNDEFINED 383880045000                       # Cumulative time (in ticks) in various power states (Tick)
system.membus.transDist::ReadResp             1519165                       # Transaction distribution (Count)
system.membus.transDist::WritebackDirty        524417                       # Transaction distribution (Count)
system.membus.transDist::CleanEvict           1514803                       # Transaction distribution (Count)
system.membus.transDist::ReadExReq             524528                       # Transaction distribution (Count)
system.membus.transDist::ReadExResp            524528                       # Transaction distribution (Count)
system.membus.transDist::ReadSharedReq        1519165                       # Transaction distribution (Count)
system.membus.pktCount_system.l2cache.mem_side_port::system.mem_ctrl.port      6126606                       # Packet count per connected requestor and responder (Count)
system.membus.pktCount::total                 6126606                       # Packet count per connected requestor and responder (Count)
system.membus.pktSize_system.l2cache.mem_side_port::system.mem_ctrl.port    164359040                       # Cumulative packet size per connected requestor and responder (Byte)
system.membus.pktSize::total                164359040                       # Cumulative packet size per connected requestor and responder (Byte)
system.membus.snoops                                0                       # Total snoops (Count)
system.membus.snoopTraffic                          0                       # Total snoop traffic (Byte)
system.membus.snoopFanout::samples            2043693                       # Request fanout histogram (Count)
system.membus.snoopFanout::mean                     0                       # Request fanout histogram (Count)
system.membus.snoopFanout::stdev                    0                       # Request fanout histogram (Count)
system.membus.snoopFanout::underflows               0      0.00%      0.00% # Request fanout histogram (Count)
system.membus.snoopFanout::0                  2043693    100.00%    100.00% # Request fanout histogram (Count)
system.membus.snoopFanout::1                        0      0.00%    100.00% # Request fanout histogram (Count)
system.membus.snoopFanout::overflows                0      0.00%    100.00% # Request fanout histogram (Count)
system.membus.snoopFanout::min_value                0                       # Request fanout histogram (Count)
system.membus.snoopFanout::max_value                0                       # Request fanout histogram (Count)
system.membus.snoopFanout::total              2043693                       # Request fanout histogram (Count)
system.membus.power_state.pwrStateResidencyTicks::UNDEFINED 383880045000                       # Cumulative time (in ticks) in various power states (Tick)
system.membus.reqLayer0.occupancy          3090290500                       # Layer occupancy (ticks) (Tick)
system.membus.reqLayer0.utilization               0.0                       # Layer utilization (Ratio)
system.membus.respLayer0.occupancy         5549040108                       # Layer occupancy (ticks) (Tick)
system.membus.respLayer0.utilization              0.0                       # Layer utilization (Ratio)
system.membus.snoop_filter.totRequests        4082913                       # Total number of requests made to the snoop filter. (Count)
system.membus.snoop_filter.hitSingleRequests      2039220                       # Number of requests hitting in the snoop filter with a single holder of the requested data. (Count)
system.membus.snoop_filter.hitMultiRequests            0                       # Number of requests hitting in the snoop filter with multiple (>1) holders of the requested data. (Count)
system.membus.snoop_filter.totSnoops                0                       # Total number of snoops made to the snoop filter. (Count)
system.membus.snoop_filter.hitSingleSnoops            0                       # Number of snoops hitting in the snoop filter with a single holder of the requested data. (Count)
system.membus.snoop_filter.hitMultiSnoops            0                       # Number of snoops hitting in the snoop filter with multiple (>1) holders of the requested data. (Count)
system.workload.inst.arm                            0                       # number of arm instructions executed (Count)
system.workload.inst.quiesce                        0                       # number of quiesce instructions executed (Count)

---------- End Simulation Statistics   ----------
