
---------- Begin Simulation Statistics ----------
simSeconds                                   0.249353                       # Number of seconds simulated (Second)
simTicks                                 249352605500                       # Number of ticks simulated (Tick)
finalTick                                249352605500                       # Number of ticks from beginning of simulation (restored from checkpoints and never reset) (Tick)
simFreq                                  1000000000000                       # The number of ticks per simulated second ((Tick/Second))
hostSeconds                                   3005.23                       # Real time elapsed on the host (Second)
hostTickRate                                 82972791                       # The number of ticks simulated per host second (ticks/s) ((Tick/Second))
hostMemory                                    2246800                       # Number of bytes of host memory used (Byte)
simInsts                                   1000000000                       # Number of instructions simulated (Count)
simOps                                     1132163591                       # Number of ops (including micro ops) simulated (Count)
hostInstRate                                   332753                       # Simulator instruction rate (inst/s) ((Count/Second))
hostOpRate                                     376731                       # Simulator op (including micro ops) rate (op/s) ((Count/Second))
system.clk_domain.clock                           500                       # Clock period in ticks (Tick)
system.clk_domain.voltage_domain.voltage            1                       # Voltage in Volts (Volt)
system.cpu.numCycles                        498705212                       # Number of cpu cycles simulated (Cycle)
system.cpu.numWorkItemsStarted                      0                       # Number of work items this cpu started (Count)
system.cpu.numWorkItemsCompleted                    0                       # Number of work items this cpu completed (Count)
system.cpu.instsAdded                      1284481348                       # Number of instructions added to the IQ (excludes non-spec) (Count)
system.cpu.nonSpecInstsAdded                     1986                       # Number of non-speculative instructions added to the IQ (Count)
system.cpu.instsIssued                     1209672000                       # Number of instructions issued (Count)
system.cpu.squashedInstsIssued                   5721                       # Number of squashed instructions issued (Count)
system.cpu.squashedInstsExamined            152319696                       # Number of squashed instructions iterated over during squash; mainly for profiling (Count)
system.cpu.squashedOperandsExamined         449639261                       # Number of squashed operands that are examined and possibly removed from graph (Count)
system.cpu.squashedNonSpecRemoved                 134                       # Number of squashed non-spec instructions that were removed (Count)
system.cpu.numIssuedDist::samples           498598173                       # Number of insts issued each cycle (Count)
system.cpu.numIssuedDist::mean               2.426146                       # Number of insts issued each cycle (Count)
system.cpu.numIssuedDist::stdev              1.950104                       # Number of insts issued each cycle (Count)
system.cpu.numIssuedDist::underflows                0      0.00%      0.00% # Number of insts issued each cycle (Count)
system.cpu.numIssuedDist::0                  86548239     17.36%     17.36% # Number of insts issued each cycle (Count)
system.cpu.numIssuedDist::1                  97616953     19.58%     36.94% # Number of insts issued each cycle (Count)
system.cpu.numIssuedDist::2                 105698417     21.20%     58.14% # Number of insts issued each cycle (Count)
system.cpu.numIssuedDist::3                  81663090     16.38%     74.51% # Number of insts issued each cycle (Count)
system.cpu.numIssuedDist::4                  47441701      9.52%     84.03% # Number of insts issued each cycle (Count)
system.cpu.numIssuedDist::5                  41381495      8.30%     92.33% # Number of insts issued each cycle (Count)
system.cpu.numIssuedDist::6                  19481974      3.91%     96.24% # Number of insts issued each cycle (Count)
system.cpu.numIssuedDist::7                   8027612      1.61%     97.85% # Number of insts issued each cycle (Count)
system.cpu.numIssuedDist::8                  10738692      2.15%    100.00% # Number of insts issued each cycle (Count)
system.cpu.numIssuedDist::overflows                 0      0.00%    100.00% # Number of insts issued each cycle (Count)
system.cpu.numIssuedDist::min_value                 0                       # Number of insts issued each cycle (Count)
system.cpu.numIssuedDist::max_value                 8                       # Number of insts issued each cycle (Count)
system.cpu.numIssuedDist::total             498598173                       # Number of insts issued each cycle (Count)
system.cpu.statFuBusy::No_OpClass                   0      0.00%      0.00% # attempts to use FU when none available (Count)
system.cpu.statFuBusy::IntAlu                 2249495     14.93%     14.93% # attempts to use FU when none available (Count)
system.cpu.statFuBusy::IntMult                      0      0.00%     14.93% # attempts to use FU when none available (Count)
system.cpu.statFuBusy::IntDiv                       0      0.00%     14.93% # attempts to use FU when none available (Count)
system.cpu.statFuBusy::FloatAdd                     0      0.00%     14.93% # attempts to use FU when none available (Count)
system.cpu.statFuBusy::FloatCmp                     0      0.00%     14.93% # attempts to use FU when none available (Count)
system.cpu.statFuBusy::FloatCvt                     0      0.00%     14.93% # attempts to use FU when none available (Count)
system.cpu.statFuBusy::FloatMult                    0      0.00%     14.93% # attempts to use FU when none available (Count)
system.cpu.statFuBusy::FloatMultAcc                 0      0.00%     14.93% # attempts to use FU when none available (Count)
system.cpu.statFuBusy::FloatDiv                     0      0.00%     14.93% # attempts to use FU when none available (Count)
system.cpu.statFuBusy::FloatMisc                    0      0.00%     14.93% # attempts to use FU when none available (Count)
system.cpu.statFuBusy::FloatSqrt                    0      0.00%     14.93% # attempts to use FU when none available (Count)
system.cpu.statFuBusy::SimdAdd                      0      0.00%     14.93% # attempts to use FU when none available (Count)
system.cpu.statFuBusy::SimdAddAcc                   0      0.00%     14.93% # attempts to use FU when none available (Count)
system.cpu.statFuBusy::SimdAlu                      0      0.00%     14.93% # attempts to use FU when none available (Count)
system.cpu.statFuBusy::SimdCmp                      0      0.00%     14.93% # attempts to use FU when none available (Count)
system.cpu.statFuBusy::SimdCvt                      0      0.00%     14.93% # attempts to use FU when none available (Count)
system.cpu.statFuBusy::SimdMisc                     0      0.00%     14.93% # attempts to use FU when none available (Count)
system.cpu.statFuBusy::SimdMult                     0      0.00%     14.93% # attempts to use FU when none available (Count)
system.cpu.statFuBusy::SimdMultAcc                  0      0.00%     14.93% # attempts to use FU when none available (Count)
system.cpu.statFuBusy::SimdShift                    0      0.00%     14.93% # attempts to use FU when none available (Count)
system.cpu.statFuBusy::SimdShiftAcc                 0      0.00%     14.93% # attempts to use FU when none available (Count)
system.cpu.statFuBusy::SimdDiv                      0      0.00%     14.93% # attempts to use FU when none available (Count)
system.cpu.statFuBusy::SimdSqrt                     0      0.00%     14.93% # attempts to use FU when none available (Count)
system.cpu.statFuBusy::SimdFloatAdd                 0      0.00%     14.93% # attempts to use FU when none available (Count)
system.cpu.statFuBusy::SimdFloatAlu                 0      0.00%     14.93% # attempts to use FU when none available (Count)
system.cpu.statFuBusy::SimdFloatCmp                 0      0.00%     14.93% # attempts to use FU when none available (Count)
system.cpu.statFuBusy::SimdFloatCvt                 0      0.00%     14.93% # attempts to use FU when none available (Count)
system.cpu.statFuBusy::SimdFloatDiv                 0      0.00%     14.93% # attempts to use FU when none available (Count)
system.cpu.statFuBusy::SimdFloatMisc                0      0.00%     14.93% # attempts to use FU when none available (Count)
system.cpu.statFuBusy::SimdFloatMult                0      0.00%     14.93% # attempts to use FU when none available (Count)
system.cpu.statFuBusy::SimdFloatMultAcc             0      0.00%     14.93% # attempts to use FU when none available (Count)
system.cpu.statFuBusy::SimdFloatSqrt                0      0.00%     14.93% # attempts to use FU when none available (Count)
system.cpu.statFuBusy::SimdReduceAdd                0      0.00%     14.93% # attempts to use FU when none available (Count)
system.cpu.statFuBusy::SimdReduceAlu                0      0.00%     14.93% # attempts to use FU when none available (Count)
system.cpu.statFuBusy::SimdReduceCmp                0      0.00%     14.93% # attempts to use FU when none available (Count)
system.cpu.statFuBusy::SimdFloatReduceAdd            0      0.00%     14.93% # attempts to use FU when none available (Count)
system.cpu.statFuBusy::SimdFloatReduceCmp            0      0.00%     14.93% # attempts to use FU when none available (Count)
system.cpu.statFuBusy::SimdAes                      0      0.00%     14.93% # attempts to use FU when none available (Count)
system.cpu.statFuBusy::SimdAesMix                   0      0.00%     14.93% # attempts to use FU when none available (Count)
system.cpu.statFuBusy::SimdSha1Hash                 0      0.00%     14.93% # attempts to use FU when none available (Count)
system.cpu.statFuBusy::SimdSha1Hash2                0      0.00%     14.93% # attempts to use FU when none available (Count)
system.cpu.statFuBusy::SimdSha256Hash               0      0.00%     14.93% # attempts to use FU when none available (Count)
system.cpu.statFuBusy::SimdSha256Hash2              0      0.00%     14.93% # attempts to use FU when none available (Count)
system.cpu.statFuBusy::SimdShaSigma2                0      0.00%     14.93% # attempts to use FU when none available (Count)
system.cpu.statFuBusy::SimdShaSigma3                0      0.00%     14.93% # attempts to use FU when none available (Count)
system.cpu.statFuBusy::SimdPredAlu                  0      0.00%     14.93% # attempts to use FU when none available (Count)
system.cpu.statFuBusy::MemRead                9062073     60.14%     75.06% # attempts to use FU when none available (Count)
system.cpu.statFuBusy::MemWrite               3757842     24.94%    100.00% # attempts to use FU when none available (Count)
system.cpu.statFuBusy::FloatMemRead                 0      0.00%    100.00% # attempts to use FU when none available (Count)
system.cpu.statFuBusy::FloatMemWrite                0      0.00%    100.00% # attempts to use FU when none available (Count)
system.cpu.statFuBusy::IprAccess                    0      0.00%    100.00% # attempts to use FU when none available (Count)
system.cpu.statFuBusy::InstPrefetch                 0      0.00%    100.00% # attempts to use FU when none available (Count)
system.cpu.statIssuedInstType_0::No_OpClass          104      0.00%      0.00% # Number of instructions issued per FU type, per thread (Count)
system.cpu.statIssuedInstType_0::IntAlu     766304698     63.35%     63.35% # Number of instructions issued per FU type, per thread (Count)
system.cpu.statIssuedInstType_0::IntMult      6469592      0.53%     63.88% # Number of instructions issued per FU type, per thread (Count)
system.cpu.statIssuedInstType_0::IntDiv             0      0.00%     63.88% # Number of instructions issued per FU type, per thread (Count)
system.cpu.statIssuedInstType_0::FloatAdd            0      0.00%     63.88% # Number of instructions issued per FU type, per thread (Count)
system.cpu.statIssuedInstType_0::FloatCmp            0      0.00%     63.88% # Number of instructions issued per FU type, per thread (Count)
system.cpu.statIssuedInstType_0::FloatCvt            0      0.00%     63.88% # Number of instructions issued per FU type, per thread (Count)
system.cpu.statIssuedInstType_0::FloatMult            0      0.00%     63.88% # Number of instructions issued per FU type, per thread (Count)
system.cpu.statIssuedInstType_0::FloatMultAcc            0      0.00%     63.88% # Number of instructions issued per FU type, per thread (Count)
system.cpu.statIssuedInstType_0::FloatDiv            0      0.00%     63.88% # Number of instructions issued per FU type, per thread (Count)
system.cpu.statIssuedInstType_0::FloatMisc            0      0.00%     63.88% # Number of instructions issued per FU type, per thread (Count)
system.cpu.statIssuedInstType_0::FloatSqrt            0      0.00%     63.88% # Number of instructions issued per FU type, per thread (Count)
system.cpu.statIssuedInstType_0::SimdAdd            0      0.00%     63.88% # Number of instructions issued per FU type, per thread (Count)
system.cpu.statIssuedInstType_0::SimdAddAcc            0      0.00%     63.88% # Number of instructions issued per FU type, per thread (Count)
system.cpu.statIssuedInstType_0::SimdAlu            0      0.00%     63.88% # Number of instructions issued per FU type, per thread (Count)
system.cpu.statIssuedInstType_0::SimdCmp            0      0.00%     63.88% # Number of instructions issued per FU type, per thread (Count)
system.cpu.statIssuedInstType_0::SimdCvt            0      0.00%     63.88% # Number of instructions issued per FU type, per thread (Count)
system.cpu.statIssuedInstType_0::SimdMisc            0      0.00%     63.88% # Number of instructions issued per FU type, per thread (Count)
system.cpu.statIssuedInstType_0::SimdMult            0      0.00%     63.88% # Number of instructions issued per FU type, per thread (Count)
system.cpu.statIssuedInstType_0::SimdMultAcc            0      0.00%     63.88% # Number of instructions issued per FU type, per thread (Count)
system.cpu.statIssuedInstType_0::SimdShift            0      0.00%     63.88% # Number of instructions issued per FU type, per thread (Count)
system.cpu.statIssuedInstType_0::SimdShiftAcc            0      0.00%     63.88% # Number of instructions issued per FU type, per thread (Count)
system.cpu.statIssuedInstType_0::SimdDiv            0      0.00%     63.88% # Number of instructions issued per FU type, per thread (Count)
system.cpu.statIssuedInstType_0::SimdSqrt            0      0.00%     63.88% # Number of instructions issued per FU type, per thread (Count)
system.cpu.statIssuedInstType_0::SimdFloatAdd            0      0.00%     63.88% # Number of instructions issued per FU type, per thread (Count)
system.cpu.statIssuedInstType_0::SimdFloatAlu            0      0.00%     63.88% # Number of instructions issued per FU type, per thread (Count)
system.cpu.statIssuedInstType_0::SimdFloatCmp            0      0.00%     63.88% # Number of instructions issued per FU type, per thread (Count)
system.cpu.statIssuedInstType_0::SimdFloatCvt            0      0.00%     63.88% # Number of instructions issued per FU type, per thread (Count)
system.cpu.statIssuedInstType_0::SimdFloatDiv            0      0.00%     63.88% # Number of instructions issued per FU type, per thread (Count)
system.cpu.statIssuedInstType_0::SimdFloatMisc            0      0.00%     63.88% # Number of instructions issued per FU type, per thread (Count)
system.cpu.statIssuedInstType_0::SimdFloatMult            0      0.00%     63.88% # Number of instructions issued per FU type, per thread (Count)
system.cpu.statIssuedInstType_0::SimdFloatMultAcc            0      0.00%     63.88% # Number of instructions issued per FU type, per thread (Count)
system.cpu.statIssuedInstType_0::SimdFloatSqrt            0      0.00%     63.88% # Number of instructions issued per FU type, per thread (Count)
system.cpu.statIssuedInstType_0::SimdReduceAdd            0      0.00%     63.88% # Number of instructions issued per FU type, per thread (Count)
system.cpu.statIssuedInstType_0::SimdReduceAlu            0      0.00%     63.88% # Number of instructions issued per FU type, per thread (Count)
system.cpu.statIssuedInstType_0::SimdReduceCmp            0      0.00%     63.88% # Number of instructions issued per FU type, per thread (Count)
system.cpu.statIssuedInstType_0::SimdFloatReduceAdd            0      0.00%     63.88% # Number of instructions issued per FU type, per thread (Count)
system.cpu.statIssuedInstType_0::SimdFloatReduceCmp            0      0.00%     63.88% # Number of instructions issued per FU type, per thread (Count)
system.cpu.statIssuedInstType_0::SimdAes            0      0.00%     63.88% # Number of instructions issued per FU type, per thread (Count)
system.cpu.statIssuedInstType_0::SimdAesMix            0      0.00%     63.88% # Number of instructions issued per FU type, per thread (Count)
system.cpu.statIssuedInstType_0::SimdSha1Hash            0      0.00%     63.88% # Number of instructions issued per FU type, per thread (Count)
system.cpu.statIssuedInstType_0::SimdSha1Hash2            0      0.00%     63.88% # Number of instructions issued per FU type, per thread (Count)
system.cpu.statIssuedInstType_0::SimdSha256Hash            0      0.00%     63.88% # Number of instructions issued per FU type, per thread (Count)
system.cpu.statIssuedInstType_0::SimdSha256Hash2            0      0.00%     63.88% # Number of instructions issued per FU type, per thread (Count)
system.cpu.statIssuedInstType_0::SimdShaSigma2            0      0.00%     63.88% # Number of instructions issued per FU type, per thread (Count)
system.cpu.statIssuedInstType_0::SimdShaSigma3            0      0.00%     63.88% # Number of instructions issued per FU type, per thread (Count)
system.cpu.statIssuedInstType_0::SimdPredAlu            0      0.00%     63.88% # Number of instructions issued per FU type, per thread (Count)
system.cpu.statIssuedInstType_0::MemRead    283421691     23.43%     87.31% # Number of instructions issued per FU type, per thread (Count)
system.cpu.statIssuedInstType_0::MemWrite    153475915     12.69%    100.00% # Number of instructions issued per FU type, per thread (Count)
system.cpu.statIssuedInstType_0::FloatMemRead            0      0.00%    100.00% # Number of instructions issued per FU type, per thread (Count)
system.cpu.statIssuedInstType_0::FloatMemWrite            0      0.00%    100.00% # Number of instructions issued per FU type, per thread (Count)
system.cpu.statIssuedInstType_0::IprAccess            0      0.00%    100.00% # Number of instructions issued per FU type, per thread (Count)
system.cpu.statIssuedInstType_0::InstPrefetch            0      0.00%    100.00% # Number of instructions issued per FU type, per thread (Count)
system.cpu.statIssuedInstType_0::total     1209672000                       # Number of instructions issued per FU type, per thread (Count)
system.cpu.issueRate                         2.425625                       # Inst issue rate ((Count/Cycle))
system.cpu.fuBusy                            15069410                       # FU busy when requested (Count)
system.cpu.fuBusyRate                        0.012457                       # FU busy rate (busy events/executed inst) ((Count/Count))
system.cpu.intInstQueueReads               2933017304                       # Number of integer instruction queue reads (Count)
system.cpu.intInstQueueWrites              1436823999                       # Number of integer instruction queue writes (Count)
system.cpu.intInstQueueWakeupAccesses      1175782449                       # Number of integer instruction queue wakeup accesses (Count)
system.cpu.fpInstQueueReads                         0                       # Number of floating instruction queue reads (Count)
system.cpu.fpInstQueueWrites                        0                       # Number of floating instruction queue writes (Count)
system.cpu.fpInstQueueWakeupAccesses                0                       # Number of floating instruction queue wakeup accesses (Count)
system.cpu.vecInstQueueReads                        0                       # Number of vector instruction queue reads (Count)
system.cpu.vecInstQueueWrites                       0                       # Number of vector instruction queue writes (Count)
system.cpu.vecInstQueueWakeupAccesses               0                       # Number of vector instruction queue wakeup accesses (Count)
system.cpu.intAluAccesses                  1224741306                       # Number of integer alu accesses (Count)
system.cpu.fpAluAccesses                            0                       # Number of floating point alu accesses (Count)
system.cpu.vecAluAccesses                           0                       # Number of vector alu accesses (Count)
system.cpu.numInsts                        1197568666                       # Number of executed instructions (Count)
system.cpu.numLoadInsts                     278303266                       # Number of load instructions executed (Count)
system.cpu.numSquashedInsts                  12103334                       # Number of squashed instructions skipped in execute (Count)
system.cpu.numSwp                                   0                       # Number of swp insts executed (Count)
system.cpu.numNop                                   0                       # Number of nop insts executed (Count)
system.cpu.numRefs                          429687249                       # Number of memory reference insts executed (Count)
system.cpu.numBranches                      195646545                       # Number of branches executed (Count)
system.cpu.numStoreInsts                    151383983                       # Number of stores executed (Count)
system.cpu.numRate                           2.401356                       # Inst execution rate ((Count/Cycle))
system.cpu.timesIdled                            7646                       # Number of times that the entire CPU went into an idle state and unscheduled itself (Count)
system.cpu.idleCycles                          107039                       # Total number of cycles that the CPU has spent unscheduled due to idling (Cycle)
system.cpu.committedInsts                  1000000000                       # Number of Instructions Simulated (Count)
system.cpu.committedOps                    1132163591                       # Number of Ops (including micro ops) Simulated (Count)
system.cpu.cpi                               0.498705                       # CPI: Cycles Per Instruction ((Cycle/Count))
system.cpu.totalCpi                          0.498705                       # CPI: Total CPI of All Threads ((Cycle/Count))
system.cpu.ipc                               2.005193                       # IPC: Instructions Per Cycle ((Count/Cycle))
system.cpu.totalIpc                          2.005193                       # IPC: Total IPC of All Threads ((Count/Cycle))
system.cpu.intRegfileReads                 1363766074                       # Number of integer regfile reads (Count)
system.cpu.intRegfileWrites                 696068761                       # Number of integer regfile writes (Count)
system.cpu.vecRegfileReads                         16                       # number of vector regfile reads (Count)
system.cpu.ccRegfileReads                  4358567957                       # number of cc regfile reads (Count)
system.cpu.ccRegfileWrites                  611206574                       # number of cc regfile writes (Count)
system.cpu.miscRegfileReads                 406674149                       # number of misc regfile reads (Count)
system.cpu.miscRegfileWrites                     1709                       # number of misc regfile writes (Count)
system.cpu.MemDepUnit__0.insertedLoads      280625660                       # Number of loads inserted to the mem dependence unit. (Count)
system.cpu.MemDepUnit__0.insertedStores     159301424                       # Number of stores inserted to the mem dependence unit. (Count)
system.cpu.MemDepUnit__0.conflictingLoads     49171595                       # Number of conflicting loads. (Count)
system.cpu.MemDepUnit__0.conflictingStores     25294796                       # Number of conflicting stores. (Count)
system.cpu.MemDepUnit__1.insertedLoads              0                       # Number of loads inserted to the mem dependence unit. (Count)
system.cpu.MemDepUnit__1.insertedStores             0                       # Number of stores inserted to the mem dependence unit. (Count)
system.cpu.MemDepUnit__1.conflictingLoads            0                       # Number of conflicting loads. (Count)
system.cpu.MemDepUnit__1.conflictingStores            0                       # Number of conflicting stores. (Count)
system.cpu.MemDepUnit__2.insertedLoads              0                       # Number of loads inserted to the mem dependence unit. (Count)
system.cpu.MemDepUnit__2.insertedStores             0                       # Number of stores inserted to the mem dependence unit. (Count)
system.cpu.MemDepUnit__2.conflictingLoads            0                       # Number of conflicting loads. (Count)
system.cpu.MemDepUnit__2.conflictingStores            0                       # Number of conflicting stores. (Count)
system.cpu.MemDepUnit__3.insertedLoads              0                       # Number of loads inserted to the mem dependence unit. (Count)
system.cpu.MemDepUnit__3.insertedStores             0                       # Number of stores inserted to the mem dependence unit. (Count)
system.cpu.MemDepUnit__3.conflictingLoads            0                       # Number of conflicting loads. (Count)
system.cpu.MemDepUnit__3.conflictingStores            0                       # Number of conflicting stores. (Count)
system.cpu.branchPred.lookups               238198988                       # Number of BP lookups (Count)
system.cpu.branchPred.condPredicted         181125653                       # Number of conditional branches predicted (Count)
system.cpu.branchPred.condIncorrect           7351936                       # Number of conditional branches incorrect (Count)
system.cpu.branchPred.BTBLookups             74130508                       # Number of BTB lookups (Count)
system.cpu.branchPred.BTBHits                63823649                       # Number of BTB hits (Count)
system.cpu.branchPred.BTBHitRatio            0.860963                       # BTB Hit Ratio (Ratio)
system.cpu.branchPred.RASUsed                24659279                       # Number of times the RAS was used to get a target. (Count)
system.cpu.branchPred.RASIncorrect               2133                       # Number of incorrect RAS predictions. (Count)
system.cpu.branchPred.indirectLookups         2513403                       # Number of indirect predictor lookups. (Count)
system.cpu.branchPred.indirectHits            2509218                       # Number of indirect target hits. (Count)
system.cpu.branchPred.indirectMisses             4185                       # Number of indirect misses. (Count)
system.cpu.branchPred.indirectMispredicted          588                       # Number of mispredicted indirect branches. (Count)
system.cpu.commit.commitSquashedInsts       152228577                       # The number of squashed insts skipped by commit (Count)
system.cpu.commit.commitNonSpecStalls            1852                       # The number of times commit has been forced to stall to communicate backwards (Count)
system.cpu.commit.branchMispredicts           4846401                       # The number of times a branch was mispredicted (Count)
system.cpu.commit.numCommittedDist::samples    477352482                       # Number of insts commited each cycle (Count)
system.cpu.commit.numCommittedDist::mean     2.371756                       # Number of insts commited each cycle (Count)
system.cpu.commit.numCommittedDist::stdev     2.734404                       # Number of insts commited each cycle (Count)
system.cpu.commit.numCommittedDist::underflows            0      0.00%      0.00% # Number of insts commited each cycle (Count)
system.cpu.commit.numCommittedDist::0       127374157     26.68%     26.68% # Number of insts commited each cycle (Count)
system.cpu.commit.numCommittedDist::1       142597239     29.87%     56.56% # Number of insts commited each cycle (Count)
system.cpu.commit.numCommittedDist::2        72531019     15.19%     71.75% # Number of insts commited each cycle (Count)
system.cpu.commit.numCommittedDist::3        17353967      3.64%     75.39% # Number of insts commited each cycle (Count)
system.cpu.commit.numCommittedDist::4        23612972      4.95%     80.33% # Number of insts commited each cycle (Count)
system.cpu.commit.numCommittedDist::5        10481907      2.20%     82.53% # Number of insts commited each cycle (Count)
system.cpu.commit.numCommittedDist::6         6177064      1.29%     83.82% # Number of insts commited each cycle (Count)
system.cpu.commit.numCommittedDist::7         9274650      1.94%     85.77% # Number of insts commited each cycle (Count)
system.cpu.commit.numCommittedDist::8        67949507     14.23%    100.00% # Number of insts commited each cycle (Count)
system.cpu.commit.numCommittedDist::overflows            0      0.00%    100.00% # Number of insts commited each cycle (Count)
system.cpu.commit.numCommittedDist::min_value            0                       # Number of insts commited each cycle (Count)
system.cpu.commit.numCommittedDist::max_value            8                       # Number of insts commited each cycle (Count)
system.cpu.commit.numCommittedDist::total    477352482                       # Number of insts commited each cycle (Count)
system.cpu.commit.instsCommitted           1000000000                       # Number of instructions committed (Count)
system.cpu.commit.opsCommitted             1132163591                       # Number of ops (including micro ops) committed (Count)
system.cpu.commit.memRefs                   397529001                       # Number of memory references committed (Count)
system.cpu.commit.loads                     248983110                       # Number of loads committed (Count)
system.cpu.commit.amos                              0                       # Number of atomic instructions committed (Count)
system.cpu.commit.membars                         431                       # Number of memory barriers committed (Count)
system.cpu.commit.branches                  188421440                       # Number of branches committed (Count)
system.cpu.commit.vectorInstructions                0                       # Number of committed Vector instructions. (Count)
system.cpu.commit.floating                          0                       # Number of committed floating point instructions. (Count)
system.cpu.commit.integer                   982994693                       # Number of committed integer instructions. (Count)
system.cpu.commit.functionCalls              18373461                       # Number of function calls committed. (Count)
system.cpu.commit.committedInstType_0::No_OpClass            0      0.00%      0.00% # Class of committed instruction (Count)
system.cpu.commit.committedInstType_0::IntAlu    728754673     64.37%     64.37% # Class of committed instruction (Count)
system.cpu.commit.committedInstType_0::IntMult      5879917      0.52%     64.89% # Class of committed instruction (Count)
system.cpu.commit.committedInstType_0::IntDiv            0      0.00%     64.89% # Class of committed instruction (Count)
system.cpu.commit.committedInstType_0::FloatAdd            0      0.00%     64.89% # Class of committed instruction (Count)
system.cpu.commit.committedInstType_0::FloatCmp            0      0.00%     64.89% # Class of committed instruction (Count)
system.cpu.commit.committedInstType_0::FloatCvt            0      0.00%     64.89% # Class of committed instruction (Count)
system.cpu.commit.committedInstType_0::FloatMult            0      0.00%     64.89% # Class of committed instruction (Count)
system.cpu.commit.committedInstType_0::FloatMultAcc            0      0.00%     64.89% # Class of committed instruction (Count)
system.cpu.commit.committedInstType_0::FloatDiv            0      0.00%     64.89% # Class of committed instruction (Count)
system.cpu.commit.committedInstType_0::FloatMisc            0      0.00%     64.89% # Class of committed instruction (Count)
system.cpu.commit.committedInstType_0::FloatSqrt            0      0.00%     64.89% # Class of committed instruction (Count)
system.cpu.commit.committedInstType_0::SimdAdd            0      0.00%     64.89% # Class of committed instruction (Count)
system.cpu.commit.committedInstType_0::SimdAddAcc            0      0.00%     64.89% # Class of committed instruction (Count)
system.cpu.commit.committedInstType_0::SimdAlu            0      0.00%     64.89% # Class of committed instruction (Count)
system.cpu.commit.committedInstType_0::SimdCmp            0      0.00%     64.89% # Class of committed instruction (Count)
system.cpu.commit.committedInstType_0::SimdCvt            0      0.00%     64.89% # Class of committed instruction (Count)
system.cpu.commit.committedInstType_0::SimdMisc            0      0.00%     64.89% # Class of committed instruction (Count)
system.cpu.commit.committedInstType_0::SimdMult            0      0.00%     64.89% # Class of committed instruction (Count)
system.cpu.commit.committedInstType_0::SimdMultAcc            0      0.00%     64.89% # Class of committed instruction (Count)
system.cpu.commit.committedInstType_0::SimdShift            0      0.00%     64.89% # Class of committed instruction (Count)
system.cpu.commit.committedInstType_0::SimdShiftAcc            0      0.00%     64.89% # Class of committed instruction (Count)
system.cpu.commit.committedInstType_0::SimdDiv            0      0.00%     64.89% # Class of committed instruction (Count)
system.cpu.commit.committedInstType_0::SimdSqrt            0      0.00%     64.89% # Class of committed instruction (Count)
system.cpu.commit.committedInstType_0::SimdFloatAdd            0      0.00%     64.89% # Class of committed instruction (Count)
system.cpu.commit.committedInstType_0::SimdFloatAlu            0      0.00%     64.89% # Class of committed instruction (Count)
system.cpu.commit.committedInstType_0::SimdFloatCmp            0      0.00%     64.89% # Class of committed instruction (Count)
system.cpu.commit.committedInstType_0::SimdFloatCvt            0      0.00%     64.89% # Class of committed instruction (Count)
system.cpu.commit.committedInstType_0::SimdFloatDiv            0      0.00%     64.89% # Class of committed instruction (Count)
system.cpu.commit.committedInstType_0::SimdFloatMisc            0      0.00%     64.89% # Class of committed instruction (Count)
system.cpu.commit.committedInstType_0::SimdFloatMult            0      0.00%     64.89% # Class of committed instruction (Count)
system.cpu.commit.committedInstType_0::SimdFloatMultAcc            0      0.00%     64.89% # Class of committed instruction (Count)
system.cpu.commit.committedInstType_0::SimdFloatSqrt            0      0.00%     64.89% # Class of committed instruction (Count)
system.cpu.commit.committedInstType_0::SimdReduceAdd            0      0.00%     64.89% # Class of committed instruction (Count)
system.cpu.commit.committedInstType_0::SimdReduceAlu            0      0.00%     64.89% # Class of committed instruction (Count)
system.cpu.commit.committedInstType_0::SimdReduceCmp            0      0.00%     64.89% # Class of committed instruction (Count)
system.cpu.commit.committedInstType_0::SimdFloatReduceAdd            0      0.00%     64.89% # Class of committed instruction (Count)
system.cpu.commit.committedInstType_0::SimdFloatReduceCmp            0      0.00%     64.89% # Class of committed instruction (Count)
system.cpu.commit.committedInstType_0::SimdAes            0      0.00%     64.89% # Class of committed instruction (Count)
system.cpu.commit.committedInstType_0::SimdAesMix            0      0.00%     64.89% # Class of committed instruction (Count)
system.cpu.commit.committedInstType_0::SimdSha1Hash            0      0.00%     64.89% # Class of committed instruction (Count)
system.cpu.commit.committedInstType_0::SimdSha1Hash2            0      0.00%     64.89% # Class of committed instruction (Count)
system.cpu.commit.committedInstType_0::SimdSha256Hash            0      0.00%     64.89% # Class of committed instruction (Count)
system.cpu.commit.committedInstType_0::SimdSha256Hash2            0      0.00%     64.89% # Class of committed instruction (Count)
system.cpu.commit.committedInstType_0::SimdShaSigma2            0      0.00%     64.89% # Class of committed instruction (Count)
system.cpu.commit.committedInstType_0::SimdShaSigma3            0      0.00%     64.89% # Class of committed instruction (Count)
system.cpu.commit.committedInstType_0::SimdPredAlu            0      0.00%     64.89% # Class of committed instruction (Count)
system.cpu.commit.committedInstType_0::MemRead    248983110     21.99%     86.88% # Class of committed instruction (Count)
system.cpu.commit.committedInstType_0::MemWrite    148545891     13.12%    100.00% # Class of committed instruction (Count)
system.cpu.commit.committedInstType_0::FloatMemRead            0      0.00%    100.00% # Class of committed instruction (Count)
system.cpu.commit.committedInstType_0::FloatMemWrite            0      0.00%    100.00% # Class of committed instruction (Count)
system.cpu.commit.committedInstType_0::IprAccess            0      0.00%    100.00% # Class of committed instruction (Count)
system.cpu.commit.committedInstType_0::InstPrefetch            0      0.00%    100.00% # Class of committed instruction (Count)
system.cpu.commit.committedInstType_0::total   1132163591                       # Class of committed instruction (Count)
system.cpu.commit.commitEligibleSamples      67949507                       # number cycles where commit BW limit reached (Cycle)
system.cpu.dcache.demandHits::cpu.data      371075753                       # number of demand (read+write) hits (Count)
system.cpu.dcache.demandHits::total         371075753                       # number of demand (read+write) hits (Count)
system.cpu.dcache.overallHits::cpu.data     371075753                       # number of overall hits (Count)
system.cpu.dcache.overallHits::total        371075753                       # number of overall hits (Count)
system.cpu.dcache.demandMisses::cpu.data      1605701                       # number of demand (read+write) misses (Count)
system.cpu.dcache.demandMisses::total         1605701                       # number of demand (read+write) misses (Count)
system.cpu.dcache.overallMisses::cpu.data      1605701                       # number of overall misses (Count)
system.cpu.dcache.overallMisses::total        1605701                       # number of overall misses (Count)
system.cpu.dcache.demandMissLatency::cpu.data 122352613469                       # number of demand (read+write) miss ticks (Tick)
system.cpu.dcache.demandMissLatency::total 122352613469                       # number of demand (read+write) miss ticks (Tick)
system.cpu.dcache.overallMissLatency::cpu.data 122352613469                       # number of overall miss ticks (Tick)
system.cpu.dcache.overallMissLatency::total 122352613469                       # number of overall miss ticks (Tick)
system.cpu.dcache.demandAccesses::cpu.data    372681454                       # number of demand (read+write) accesses (Count)
system.cpu.dcache.demandAccesses::total     372681454                       # number of demand (read+write) accesses (Count)
system.cpu.dcache.overallAccesses::cpu.data    372681454                       # number of overall (read+write) accesses (Count)
system.cpu.dcache.overallAccesses::total    372681454                       # number of overall (read+write) accesses (Count)
system.cpu.dcache.demandMissRate::cpu.data     0.004309                       # miss rate for demand accesses (Ratio)
system.cpu.dcache.demandMissRate::total      0.004309                       # miss rate for demand accesses (Ratio)
system.cpu.dcache.overallMissRate::cpu.data     0.004309                       # miss rate for overall accesses (Ratio)
system.cpu.dcache.overallMissRate::total     0.004309                       # miss rate for overall accesses (Ratio)
system.cpu.dcache.demandAvgMissLatency::cpu.data 76198.877293                       # average overall miss latency in ticks ((Tick/Count))
system.cpu.dcache.demandAvgMissLatency::total 76198.877293                       # average overall miss latency in ticks ((Tick/Count))
system.cpu.dcache.overallAvgMissLatency::cpu.data 76198.877293                       # average overall miss latency ((Tick/Count))
system.cpu.dcache.overallAvgMissLatency::total 76198.877293                       # average overall miss latency ((Tick/Count))
system.cpu.dcache.blockedCycles::no_mshrs         4648                       # number of cycles access was blocked (Cycle)
system.cpu.dcache.blockedCycles::no_targets          317                       # number of cycles access was blocked (Cycle)
system.cpu.dcache.blockedCauses::no_mshrs          108                       # number of times access was blocked (Count)
system.cpu.dcache.blockedCauses::no_targets            3                       # number of times access was blocked (Count)
system.cpu.dcache.avgBlocked::no_mshrs      43.037037                       # average number of cycles each access was blocked ((Cycle/Count))
system.cpu.dcache.avgBlocked::no_targets   105.666667                       # average number of cycles each access was blocked ((Cycle/Count))
system.cpu.dcache.writebacks::writebacks       124149                       # number of writebacks (Count)
system.cpu.dcache.writebacks::total            124149                       # number of writebacks (Count)
system.cpu.dcache.demandMshrHits::cpu.data      1383879                       # number of demand (read+write) MSHR hits (Count)
system.cpu.dcache.demandMshrHits::total       1383879                       # number of demand (read+write) MSHR hits (Count)
system.cpu.dcache.overallMshrHits::cpu.data      1383879                       # number of overall MSHR hits (Count)
system.cpu.dcache.overallMshrHits::total      1383879                       # number of overall MSHR hits (Count)
system.cpu.dcache.demandMshrMisses::cpu.data       221822                       # number of demand (read+write) MSHR misses (Count)
system.cpu.dcache.demandMshrMisses::total       221822                       # number of demand (read+write) MSHR misses (Count)
system.cpu.dcache.overallMshrMisses::cpu.data       221822                       # number of overall MSHR misses (Count)
system.cpu.dcache.overallMshrMisses::total       221822                       # number of overall MSHR misses (Count)
system.cpu.dcache.demandMshrMissLatency::cpu.data  17143018988                       # number of demand (read+write) MSHR miss ticks (Tick)
system.cpu.dcache.demandMshrMissLatency::total  17143018988                       # number of demand (read+write) MSHR miss ticks (Tick)
system.cpu.dcache.overallMshrMissLatency::cpu.data  17143018988                       # number of overall MSHR miss ticks (Tick)
system.cpu.dcache.overallMshrMissLatency::total  17143018988                       # number of overall MSHR miss ticks (Tick)
system.cpu.dcache.demandMshrMissRate::cpu.data     0.000595                       # mshr miss ratio for demand accesses (Ratio)
system.cpu.dcache.demandMshrMissRate::total     0.000595                       # mshr miss ratio for demand accesses (Ratio)
system.cpu.dcache.overallMshrMissRate::cpu.data     0.000595                       # mshr miss ratio for overall accesses (Ratio)
system.cpu.dcache.overallMshrMissRate::total     0.000595                       # mshr miss ratio for overall accesses (Ratio)
system.cpu.dcache.demandAvgMshrMissLatency::cpu.data 77282.771718                       # average overall mshr miss latency ((Tick/Count))
system.cpu.dcache.demandAvgMshrMissLatency::total 77282.771718                       # average overall mshr miss latency ((Tick/Count))
system.cpu.dcache.overallAvgMshrMissLatency::cpu.data 77282.771718                       # average overall mshr miss latency ((Tick/Count))
system.cpu.dcache.overallAvgMshrMissLatency::total 77282.771718                       # average overall mshr miss latency ((Tick/Count))
system.cpu.dcache.replacements                 220561                       # number of replacements (Count)
system.cpu.dcache.LoadLockedReq.hits::cpu.data          441                       # number of LoadLockedReq hits (Count)
system.cpu.dcache.LoadLockedReq.hits::total          441                       # number of LoadLockedReq hits (Count)
system.cpu.dcache.LoadLockedReq.misses::cpu.data           13                       # number of LoadLockedReq misses (Count)
system.cpu.dcache.LoadLockedReq.misses::total           13                       # number of LoadLockedReq misses (Count)
system.cpu.dcache.LoadLockedReq.missLatency::cpu.data       704000                       # number of LoadLockedReq miss ticks (Tick)
system.cpu.dcache.LoadLockedReq.missLatency::total       704000                       # number of LoadLockedReq miss ticks (Tick)
system.cpu.dcache.LoadLockedReq.accesses::cpu.data          454                       # number of LoadLockedReq accesses(hits+misses) (Count)
system.cpu.dcache.LoadLockedReq.accesses::total          454                       # number of LoadLockedReq accesses(hits+misses) (Count)
system.cpu.dcache.LoadLockedReq.missRate::cpu.data     0.028634                       # miss rate for LoadLockedReq accesses (Ratio)
system.cpu.dcache.LoadLockedReq.missRate::total     0.028634                       # miss rate for LoadLockedReq accesses (Ratio)
system.cpu.dcache.LoadLockedReq.avgMissLatency::cpu.data 54153.846154                       # average LoadLockedReq miss latency ((Tick/Count))
system.cpu.dcache.LoadLockedReq.avgMissLatency::total 54153.846154                       # average LoadLockedReq miss latency ((Tick/Count))
system.cpu.dcache.LoadLockedReq.mshrHits::cpu.data           13                       # number of LoadLockedReq MSHR hits (Count)
system.cpu.dcache.LoadLockedReq.mshrHits::total           13                       # number of LoadLockedReq MSHR hits (Count)
system.cpu.dcache.ReadReq.hits::cpu.data    226616147                       # number of ReadReq hits (Count)
system.cpu.dcache.ReadReq.hits::total       226616147                       # number of ReadReq hits (Count)
system.cpu.dcache.ReadReq.misses::cpu.data       445563                       # number of ReadReq misses (Count)
system.cpu.dcache.ReadReq.misses::total        445563                       # number of ReadReq misses (Count)
system.cpu.dcache.ReadReq.missLatency::cpu.data  22850530500                       # number of ReadReq miss ticks (Tick)
system.cpu.dcache.ReadReq.missLatency::total  22850530500                       # number of ReadReq miss ticks (Tick)
system.cpu.dcache.ReadReq.accesses::cpu.data    227061710                       # number of ReadReq accesses(hits+misses) (Count)
system.cpu.dcache.ReadReq.accesses::total    227061710                       # number of ReadReq accesses(hits+misses) (Count)
system.cpu.dcache.ReadReq.missRate::cpu.data     0.001962                       # miss rate for ReadReq accesses (Ratio)
system.cpu.dcache.ReadReq.missRate::total     0.001962                       # miss rate for ReadReq accesses (Ratio)
system.cpu.dcache.ReadReq.avgMissLatency::cpu.data 51284.623050                       # average ReadReq miss latency ((Tick/Count))
system.cpu.dcache.ReadReq.avgMissLatency::total 51284.623050                       # average ReadReq miss latency ((Tick/Count))
system.cpu.dcache.ReadReq.mshrHits::cpu.data       344505                       # number of ReadReq MSHR hits (Count)
system.cpu.dcache.ReadReq.mshrHits::total       344505                       # number of ReadReq MSHR hits (Count)
system.cpu.dcache.ReadReq.mshrMisses::cpu.data       101058                       # number of ReadReq MSHR misses (Count)
system.cpu.dcache.ReadReq.mshrMisses::total       101058                       # number of ReadReq MSHR misses (Count)
system.cpu.dcache.ReadReq.mshrMissLatency::cpu.data   6045682000                       # number of ReadReq MSHR miss ticks (Tick)
system.cpu.dcache.ReadReq.mshrMissLatency::total   6045682000                       # number of ReadReq MSHR miss ticks (Tick)
system.cpu.dcache.ReadReq.mshrMissRate::cpu.data     0.000445                       # mshr miss rate for ReadReq accesses (Ratio)
system.cpu.dcache.ReadReq.mshrMissRate::total     0.000445                       # mshr miss rate for ReadReq accesses (Ratio)
system.cpu.dcache.ReadReq.avgMshrMissLatency::cpu.data 59823.883315                       # average ReadReq mshr miss latency ((Tick/Count))
system.cpu.dcache.ReadReq.avgMshrMissLatency::total 59823.883315                       # average ReadReq mshr miss latency ((Tick/Count))
system.cpu.dcache.StoreCondReq.hits::cpu.data          427                       # number of StoreCondReq hits (Count)
system.cpu.dcache.StoreCondReq.hits::total          427                       # number of StoreCondReq hits (Count)
system.cpu.dcache.StoreCondReq.accesses::cpu.data          427                       # number of StoreCondReq accesses(hits+misses) (Count)
system.cpu.dcache.StoreCondReq.accesses::total          427                       # number of StoreCondReq accesses(hits+misses) (Count)
system.cpu.dcache.WriteReq.hits::cpu.data    144459606                       # number of WriteReq hits (Count)
system.cpu.dcache.WriteReq.hits::total      144459606                       # number of WriteReq hits (Count)
system.cpu.dcache.WriteReq.misses::cpu.data      1160138                       # number of WriteReq misses (Count)
system.cpu.dcache.WriteReq.misses::total      1160138                       # number of WriteReq misses (Count)
system.cpu.dcache.WriteReq.missLatency::cpu.data  99502082969                       # number of WriteReq miss ticks (Tick)
system.cpu.dcache.WriteReq.missLatency::total  99502082969                       # number of WriteReq miss ticks (Tick)
system.cpu.dcache.WriteReq.accesses::cpu.data    145619744                       # number of WriteReq accesses(hits+misses) (Count)
system.cpu.dcache.WriteReq.accesses::total    145619744                       # number of WriteReq accesses(hits+misses) (Count)
system.cpu.dcache.WriteReq.missRate::cpu.data     0.007967                       # miss rate for WriteReq accesses (Ratio)
system.cpu.dcache.WriteReq.missRate::total     0.007967                       # miss rate for WriteReq accesses (Ratio)
system.cpu.dcache.WriteReq.avgMissLatency::cpu.data 85767.454362                       # average WriteReq miss latency ((Tick/Count))
system.cpu.dcache.WriteReq.avgMissLatency::total 85767.454362                       # average WriteReq miss latency ((Tick/Count))
system.cpu.dcache.WriteReq.mshrHits::cpu.data      1039374                       # number of WriteReq MSHR hits (Count)
system.cpu.dcache.WriteReq.mshrHits::total      1039374                       # number of WriteReq MSHR hits (Count)
system.cpu.dcache.WriteReq.mshrMisses::cpu.data       120764                       # number of WriteReq MSHR misses (Count)
system.cpu.dcache.WriteReq.mshrMisses::total       120764                       # number of WriteReq MSHR misses (Count)
system.cpu.dcache.WriteReq.mshrMissLatency::cpu.data  11097336988                       # number of WriteReq MSHR miss ticks (Tick)
system.cpu.dcache.WriteReq.mshrMissLatency::total  11097336988                       # number of WriteReq MSHR miss ticks (Tick)
system.cpu.dcache.WriteReq.mshrMissRate::cpu.data     0.000829                       # mshr miss rate for WriteReq accesses (Ratio)
system.cpu.dcache.WriteReq.mshrMissRate::total     0.000829                       # mshr miss rate for WriteReq accesses (Ratio)
system.cpu.dcache.WriteReq.avgMshrMissLatency::cpu.data 91892.757676                       # average WriteReq mshr miss latency ((Tick/Count))
system.cpu.dcache.WriteReq.avgMshrMissLatency::total 91892.757676                       # average WriteReq mshr miss latency ((Tick/Count))
system.cpu.dcache.power_state.pwrStateResidencyTicks::UNDEFINED 249352605500                       # Cumulative time (in ticks) in various power states (Tick)
system.cpu.dcache.tags.tagsInUse           511.809721                       # Average ticks per tags in use ((Tick/Count))
system.cpu.dcache.tags.totalRefs            371302055                       # Total number of references to valid blocks. (Count)
system.cpu.dcache.tags.sampledRefs             221073                       # Sample count of references to valid blocks. (Count)
system.cpu.dcache.tags.avgRefs            1679.545015                       # Average number of references to valid blocks. ((Count/Count))
system.cpu.dcache.tags.warmupTick              148500                       # The tick when the warmup percentage was hit. (Tick)
system.cpu.dcache.tags.occupancies::cpu.data   511.809721                       # Average occupied blocks per tick, per requestor ((Count/Tick))
system.cpu.dcache.tags.avgOccs::cpu.data     0.999628                       # Average percentage of cache occupancy ((Ratio/Tick))
system.cpu.dcache.tags.avgOccs::total        0.999628                       # Average percentage of cache occupancy ((Ratio/Tick))
system.cpu.dcache.tags.occupanciesTaskId::1024          512                       # Occupied blocks per task id (Count)
system.cpu.dcache.tags.ageTaskId_1024::0            3                       # Occupied blocks per task id, per block age (Count)
system.cpu.dcache.tags.ageTaskId_1024::1           20                       # Occupied blocks per task id, per block age (Count)
system.cpu.dcache.tags.ageTaskId_1024::2          191                       # Occupied blocks per task id, per block age (Count)
system.cpu.dcache.tags.ageTaskId_1024::3          172                       # Occupied blocks per task id, per block age (Count)
system.cpu.dcache.tags.ageTaskId_1024::4          126                       # Occupied blocks per task id, per block age (Count)
system.cpu.dcache.tags.ratioOccsTaskId::1024            1                       # Ratio of occupied blocks and all blocks, per task id (Ratio)
system.cpu.dcache.tags.tagAccesses          745585743                       # Number of tag accesses (Count)
system.cpu.dcache.tags.dataAccesses         745585743                       # Number of data accesses (Count)
system.cpu.dcache.tags.power_state.pwrStateResidencyTicks::UNDEFINED 249352605500                       # Cumulative time (in ticks) in various power states (Tick)
system.cpu.decode.idleCycles                172739083                       # Number of cycles decode is idle (Cycle)
system.cpu.decode.blockedCycles              93805309                       # Number of cycles decode is blocked (Cycle)
system.cpu.decode.runCycles                 203151488                       # Number of cycles decode is running (Cycle)
system.cpu.decode.unblockCycles              24036814                       # Number of cycles decode is unblocking (Cycle)
system.cpu.decode.squashCycles                4865479                       # Number of cycles decode is squashing (Cycle)
system.cpu.decode.branchResolved             64883425                       # Number of times decode resolved a branch (Count)
system.cpu.decode.branchMispred               2507077                       # Number of times decode detected a branch misprediction (Count)
system.cpu.decode.decodedInsts             1327466869                       # Number of instructions handled by decode (Count)
system.cpu.decode.squashedInsts                  9701                       # Number of squashed instructions handled by decode (Count)
system.cpu.fetch.icacheStallCycles          216596930                       # Number of cycles fetch is stalled on an Icache miss (Cycle)
system.cpu.fetch.insts                     1235894785                       # Number of instructions fetch has processed (Count)
system.cpu.fetch.branches                   238198988                       # Number of branches that fetch encountered (Count)
system.cpu.fetch.predictedBranches           90992146                       # Number of branches that fetch has predicted taken (Count)
system.cpu.fetch.cycles                     274629277                       # Number of cycles fetch has run and was not squashing or blocked (Cycle)
system.cpu.fetch.squashCycles                14742222                       # Number of cycles fetch has spent squashing (Cycle)
system.cpu.fetch.miscStallCycles                  115                       # Number of cycles fetch has spent waiting on interrupts, or bad addresses, or out of MSHRs (Cycle)
system.cpu.fetch.pendingTrapStallCycles           633                       # Number of stall cycles due to pending traps (Cycle)
system.cpu.fetch.icacheWaitRetryStallCycles          107                       # Number of stall cycles due to full MSHR (Cycle)
system.cpu.fetch.cacheLines                 180869402                       # Number of cache lines fetched (Count)
system.cpu.fetch.icacheSquashes               2007702                       # Number of outstanding Icache misses that were squashed (Count)
system.cpu.fetch.nisnDist::samples          498598173                       # Number of instructions fetched each cycle (Total) (Count)
system.cpu.fetch.nisnDist::mean              2.798808                       # Number of instructions fetched each cycle (Total) (Count)
system.cpu.fetch.nisnDist::stdev             3.386401                       # Number of instructions fetched each cycle (Total) (Count)
system.cpu.fetch.nisnDist::underflows               0      0.00%      0.00% # Number of instructions fetched each cycle (Total) (Count)
system.cpu.fetch.nisnDist::0                250560595     50.25%     50.25% # Number of instructions fetched each cycle (Total) (Count)
system.cpu.fetch.nisnDist::1                 26937250      5.40%     55.66% # Number of instructions fetched each cycle (Total) (Count)
system.cpu.fetch.nisnDist::2                 28085162      5.63%     61.29% # Number of instructions fetched each cycle (Total) (Count)
system.cpu.fetch.nisnDist::3                  8070137      1.62%     62.91% # Number of instructions fetched each cycle (Total) (Count)
system.cpu.fetch.nisnDist::4                 24476162      4.91%     67.82% # Number of instructions fetched each cycle (Total) (Count)
system.cpu.fetch.nisnDist::5                 22405202      4.49%     72.31% # Number of instructions fetched each cycle (Total) (Count)
system.cpu.fetch.nisnDist::6                  8944843      1.79%     74.10% # Number of instructions fetched each cycle (Total) (Count)
system.cpu.fetch.nisnDist::7                  8387605      1.68%     75.79% # Number of instructions fetched each cycle (Total) (Count)
system.cpu.fetch.nisnDist::8                120731217     24.21%    100.00% # Number of instructions fetched each cycle (Total) (Count)
system.cpu.fetch.nisnDist::overflows                0      0.00%    100.00% # Number of instructions fetched each cycle (Total) (Count)
system.cpu.fetch.nisnDist::min_value                0                       # Number of instructions fetched each cycle (Total) (Count)
system.cpu.fetch.nisnDist::max_value                8                       # Number of instructions fetched each cycle (Total) (Count)
system.cpu.fetch.nisnDist::total            498598173                       # Number of instructions fetched each cycle (Total) (Count)
system.cpu.fetch.branchRate                  0.477635                       # Number of branch fetches per cycle (Ratio)
system.cpu.fetch.rate                        2.478207                       # Number of inst fetches per cycle ((Count/Cycle))
system.cpu.icache.demandHits::cpu.inst      179594841                       # number of demand (read+write) hits (Count)
system.cpu.icache.demandHits::total         179594841                       # number of demand (read+write) hits (Count)
system.cpu.icache.overallHits::cpu.inst     179594841                       # number of overall hits (Count)
system.cpu.icache.overallHits::total        179594841                       # number of overall hits (Count)
system.cpu.icache.demandMisses::cpu.inst      1274561                       # number of demand (read+write) misses (Count)
system.cpu.icache.demandMisses::total         1274561                       # number of demand (read+write) misses (Count)
system.cpu.icache.overallMisses::cpu.inst      1274561                       # number of overall misses (Count)
system.cpu.icache.overallMisses::total        1274561                       # number of overall misses (Count)
system.cpu.icache.demandMissLatency::cpu.inst  17078501998                       # number of demand (read+write) miss ticks (Tick)
system.cpu.icache.demandMissLatency::total  17078501998                       # number of demand (read+write) miss ticks (Tick)
system.cpu.icache.overallMissLatency::cpu.inst  17078501998                       # number of overall miss ticks (Tick)
system.cpu.icache.overallMissLatency::total  17078501998                       # number of overall miss ticks (Tick)
system.cpu.icache.demandAccesses::cpu.inst    180869402                       # number of demand (read+write) accesses (Count)
system.cpu.icache.demandAccesses::total     180869402                       # number of demand (read+write) accesses (Count)
system.cpu.icache.overallAccesses::cpu.inst    180869402                       # number of overall (read+write) accesses (Count)
system.cpu.icache.overallAccesses::total    180869402                       # number of overall (read+write) accesses (Count)
system.cpu.icache.demandMissRate::cpu.inst     0.007047                       # miss rate for demand accesses (Ratio)
system.cpu.icache.demandMissRate::total      0.007047                       # miss rate for demand accesses (Ratio)
system.cpu.icache.overallMissRate::cpu.inst     0.007047                       # miss rate for overall accesses (Ratio)
system.cpu.icache.overallMissRate::total     0.007047                       # miss rate for overall accesses (Ratio)
system.cpu.icache.demandAvgMissLatency::cpu.inst 13399.517166                       # average overall miss latency in ticks ((Tick/Count))
system.cpu.icache.demandAvgMissLatency::total 13399.517166                       # average overall miss latency in ticks ((Tick/Count))
system.cpu.icache.overallAvgMissLatency::cpu.inst 13399.517166                       # average overall miss latency ((Tick/Count))
system.cpu.icache.overallAvgMissLatency::total 13399.517166                       # average overall miss latency ((Tick/Count))
system.cpu.icache.blockedCycles::no_mshrs         1443                       # number of cycles access was blocked (Cycle)
system.cpu.icache.blockedCycles::no_targets            0                       # number of cycles access was blocked (Cycle)
system.cpu.icache.blockedCauses::no_mshrs           27                       # number of times access was blocked (Count)
system.cpu.icache.blockedCauses::no_targets            0                       # number of times access was blocked (Count)
system.cpu.icache.avgBlocked::no_mshrs      53.444444                       # average number of cycles each access was blocked ((Cycle/Count))
system.cpu.icache.avgBlocked::no_targets          nan                       # average number of cycles each access was blocked ((Cycle/Count))
system.cpu.icache.writebacks::writebacks            2                       # number of writebacks (Count)
system.cpu.icache.writebacks::total                 2                       # number of writebacks (Count)
system.cpu.icache.demandMshrHits::cpu.inst         2163                       # number of demand (read+write) MSHR hits (Count)
system.cpu.icache.demandMshrHits::total          2163                       # number of demand (read+write) MSHR hits (Count)
system.cpu.icache.overallMshrHits::cpu.inst         2163                       # number of overall MSHR hits (Count)
system.cpu.icache.overallMshrHits::total         2163                       # number of overall MSHR hits (Count)
system.cpu.icache.demandMshrMisses::cpu.inst      1272398                       # number of demand (read+write) MSHR misses (Count)
system.cpu.icache.demandMshrMisses::total      1272398                       # number of demand (read+write) MSHR misses (Count)
system.cpu.icache.overallMshrMisses::cpu.inst      1272398                       # number of overall MSHR misses (Count)
system.cpu.icache.overallMshrMisses::total      1272398                       # number of overall MSHR misses (Count)
system.cpu.icache.demandMshrMissLatency::cpu.inst  15768502999                       # number of demand (read+write) MSHR miss ticks (Tick)
system.cpu.icache.demandMshrMissLatency::total  15768502999                       # number of demand (read+write) MSHR miss ticks (Tick)
system.cpu.icache.overallMshrMissLatency::cpu.inst  15768502999                       # number of overall MSHR miss ticks (Tick)
system.cpu.icache.overallMshrMissLatency::total  15768502999                       # number of overall MSHR miss ticks (Tick)
system.cpu.icache.demandMshrMissRate::cpu.inst     0.007035                       # mshr miss ratio for demand accesses (Ratio)
system.cpu.icache.demandMshrMissRate::total     0.007035                       # mshr miss ratio for demand accesses (Ratio)
system.cpu.icache.overallMshrMissRate::cpu.inst     0.007035                       # mshr miss ratio for overall accesses (Ratio)
system.cpu.icache.overallMshrMissRate::total     0.007035                       # mshr miss ratio for overall accesses (Ratio)
system.cpu.icache.demandAvgMshrMissLatency::cpu.inst 12392.744251                       # average overall mshr miss latency ((Tick/Count))
system.cpu.icache.demandAvgMshrMissLatency::total 12392.744251                       # average overall mshr miss latency ((Tick/Count))
system.cpu.icache.overallAvgMshrMissLatency::cpu.inst 12392.744251                       # average overall mshr miss latency ((Tick/Count))
system.cpu.icache.overallAvgMshrMissLatency::total 12392.744251                       # average overall mshr miss latency ((Tick/Count))
system.cpu.icache.replacements                1271142                       # number of replacements (Count)
system.cpu.icache.ReadReq.hits::cpu.inst    179594841                       # number of ReadReq hits (Count)
system.cpu.icache.ReadReq.hits::total       179594841                       # number of ReadReq hits (Count)
system.cpu.icache.ReadReq.misses::cpu.inst      1274561                       # number of ReadReq misses (Count)
system.cpu.icache.ReadReq.misses::total       1274561                       # number of ReadReq misses (Count)
system.cpu.icache.ReadReq.missLatency::cpu.inst  17078501998                       # number of ReadReq miss ticks (Tick)
system.cpu.icache.ReadReq.missLatency::total  17078501998                       # number of ReadReq miss ticks (Tick)
system.cpu.icache.ReadReq.accesses::cpu.inst    180869402                       # number of ReadReq accesses(hits+misses) (Count)
system.cpu.icache.ReadReq.accesses::total    180869402                       # number of ReadReq accesses(hits+misses) (Count)
system.cpu.icache.ReadReq.missRate::cpu.inst     0.007047                       # miss rate for ReadReq accesses (Ratio)
system.cpu.icache.ReadReq.missRate::total     0.007047                       # miss rate for ReadReq accesses (Ratio)
system.cpu.icache.ReadReq.avgMissLatency::cpu.inst 13399.517166                       # average ReadReq miss latency ((Tick/Count))
system.cpu.icache.ReadReq.avgMissLatency::total 13399.517166                       # average ReadReq miss latency ((Tick/Count))
system.cpu.icache.ReadReq.mshrHits::cpu.inst         2163                       # number of ReadReq MSHR hits (Count)
system.cpu.icache.ReadReq.mshrHits::total         2163                       # number of ReadReq MSHR hits (Count)
system.cpu.icache.ReadReq.mshrMisses::cpu.inst      1272398                       # number of ReadReq MSHR misses (Count)
system.cpu.icache.ReadReq.mshrMisses::total      1272398                       # number of ReadReq MSHR misses (Count)
system.cpu.icache.ReadReq.mshrMissLatency::cpu.inst  15768502999                       # number of ReadReq MSHR miss ticks (Tick)
system.cpu.icache.ReadReq.mshrMissLatency::total  15768502999                       # number of ReadReq MSHR miss ticks (Tick)
system.cpu.icache.ReadReq.mshrMissRate::cpu.inst     0.007035                       # mshr miss rate for ReadReq accesses (Ratio)
system.cpu.icache.ReadReq.mshrMissRate::total     0.007035                       # mshr miss rate for ReadReq accesses (Ratio)
system.cpu.icache.ReadReq.avgMshrMissLatency::cpu.inst 12392.744251                       # average ReadReq mshr miss latency ((Tick/Count))
system.cpu.icache.ReadReq.avgMshrMissLatency::total 12392.744251                       # average ReadReq mshr miss latency ((Tick/Count))
system.cpu.icache.power_state.pwrStateResidencyTicks::UNDEFINED 249352605500                       # Cumulative time (in ticks) in various power states (Tick)
system.cpu.icache.tags.tagsInUse           507.929744                       # Average ticks per tags in use ((Tick/Count))
system.cpu.icache.tags.totalRefs            180867239                       # Total number of references to valid blocks. (Count)
system.cpu.icache.tags.sampledRefs            1272398                       # Sample count of references to valid blocks. (Count)
system.cpu.icache.tags.avgRefs             142.146749                       # Average number of references to valid blocks. ((Count/Count))
system.cpu.icache.tags.warmupTick               81500                       # The tick when the warmup percentage was hit. (Tick)
system.cpu.icache.tags.occupancies::cpu.inst   507.929744                       # Average occupied blocks per tick, per requestor ((Count/Tick))
system.cpu.icache.tags.avgOccs::cpu.inst     0.992050                       # Average percentage of cache occupancy ((Ratio/Tick))
system.cpu.icache.tags.avgOccs::total        0.992050                       # Average percentage of cache occupancy ((Ratio/Tick))
system.cpu.icache.tags.occupanciesTaskId::1024          508                       # Occupied blocks per task id (Count)
system.cpu.icache.tags.ageTaskId_1024::0            2                       # Occupied blocks per task id, per block age (Count)
system.cpu.icache.tags.ageTaskId_1024::2            8                       # Occupied blocks per task id, per block age (Count)
system.cpu.icache.tags.ageTaskId_1024::3            1                       # Occupied blocks per task id, per block age (Count)
system.cpu.icache.tags.ageTaskId_1024::4          497                       # Occupied blocks per task id, per block age (Count)
system.cpu.icache.tags.ratioOccsTaskId::1024     0.992188                       # Ratio of occupied blocks and all blocks, per task id (Ratio)
system.cpu.icache.tags.tagAccesses          363011202                       # Number of tag accesses (Count)
system.cpu.icache.tags.dataAccesses         363011202                       # Number of data accesses (Count)
system.cpu.icache.tags.power_state.pwrStateResidencyTicks::UNDEFINED 249352605500                       # Cumulative time (in ticks) in various power states (Tick)
system.cpu.iew.idleCycles                           0                       # Number of cycles IEW is idle (Cycle)
system.cpu.iew.squashCycles                   4865479                       # Number of cycles IEW is squashing (Cycle)
system.cpu.iew.blockCycles                   16441336                       # Number of cycles IEW is blocking (Cycle)
system.cpu.iew.unblockCycles                   105122                       # Number of cycles IEW is unblocking (Cycle)
system.cpu.iew.dispatchedInsts             1284483334                       # Number of instructions dispatched to IQ (Count)
system.cpu.iew.dispSquashedInsts                 4162                       # Number of squashed instructions skipped by dispatch (Count)
system.cpu.iew.dispLoadInsts                280625660                       # Number of dispatched load instructions (Count)
system.cpu.iew.dispStoreInsts               159301424                       # Number of dispatched store instructions (Count)
system.cpu.iew.dispNonSpecInsts                  1555                       # Number of dispatched non-speculative instructions (Count)
system.cpu.iew.iqFullEvents                      6007                       # Number of times the IQ has become full, causing a stall (Count)
system.cpu.iew.lsqFullEvents                    98843                       # Number of times the LSQ has become full, causing a stall (Count)
system.cpu.iew.memOrderViolationEvents          21200                       # Number of memory order violations (Count)
system.cpu.iew.predictedTakenIncorrect         494818                       # Number of branches that were predicted taken incorrectly (Count)
system.cpu.iew.predictedNotTakenIncorrect      5185457                       # Number of branches that were predicted not taken incorrectly (Count)
system.cpu.iew.branchMispredicts              5680275                       # Number of branch mispredicts detected at execute (Count)
system.cpu.iew.instsToCommit               1177060759                       # Cumulative count of insts sent to commit (Count)
system.cpu.iew.writebackCount              1175782449                       # Cumulative count of insts written-back (Count)
system.cpu.iew.producerInst                 711889181                       # Number of instructions producing a value (Count)
system.cpu.iew.consumerInst                1248176747                       # Number of instructions consuming a value (Count)
system.cpu.iew.wbRate                        2.357670                       # Insts written-back per cycle ((Count/Cycle))
system.cpu.iew.wbFanout                      0.570343                       # Average fanout of values written-back ((Count/Count))
system.cpu.lsq0.forwLoads                    30766198                       # Number of loads that had data forwarded from stores (Count)
system.cpu.lsq0.squashedLoads                31642543                       # Number of loads squashed (Count)
system.cpu.lsq0.ignoredResponses                 8322                       # Number of memory responses ignored because the instruction is squashed (Count)
system.cpu.lsq0.memOrderViolation               21200                       # Number of memory ordering violations (Count)
system.cpu.lsq0.squashedStores               10755509                       # Number of stores squashed (Count)
system.cpu.lsq0.rescheduledLoads             19219179                       # Number of loads that were rescheduled (Count)
system.cpu.lsq0.blockedByCache                     89                       # Number of times an access to memory failed due to the cache being blocked (Count)
system.cpu.lsq0.loadToUse::samples          248983107                       # Distribution of cycle latency between the first time a load is issued and its completion (Unspecified)
system.cpu.lsq0.loadToUse::mean              3.903374                       # Distribution of cycle latency between the first time a load is issued and its completion (Unspecified)
system.cpu.lsq0.loadToUse::stdev             6.542745                       # Distribution of cycle latency between the first time a load is issued and its completion (Unspecified)
system.cpu.lsq0.loadToUse::0-9              240663718     96.66%     96.66% # Distribution of cycle latency between the first time a load is issued and its completion (Unspecified)
system.cpu.lsq0.loadToUse::10-19              4807431      1.93%     98.59% # Distribution of cycle latency between the first time a load is issued and its completion (Unspecified)
system.cpu.lsq0.loadToUse::20-29              2754767      1.11%     99.70% # Distribution of cycle latency between the first time a load is issued and its completion (Unspecified)
system.cpu.lsq0.loadToUse::30-39               437210      0.18%     99.87% # Distribution of cycle latency between the first time a load is issued and its completion (Unspecified)
system.cpu.lsq0.loadToUse::40-49                22261      0.01%     99.88% # Distribution of cycle latency between the first time a load is issued and its completion (Unspecified)
system.cpu.lsq0.loadToUse::50-59                11024      0.00%     99.88% # Distribution of cycle latency between the first time a load is issued and its completion (Unspecified)
system.cpu.lsq0.loadToUse::60-69                28307      0.01%     99.90% # Distribution of cycle latency between the first time a load is issued and its completion (Unspecified)
system.cpu.lsq0.loadToUse::70-79                52973      0.02%     99.92% # Distribution of cycle latency between the first time a load is issued and its completion (Unspecified)
system.cpu.lsq0.loadToUse::80-89                16609      0.01%     99.92% # Distribution of cycle latency between the first time a load is issued and its completion (Unspecified)
system.cpu.lsq0.loadToUse::90-99                 8247      0.00%     99.93% # Distribution of cycle latency between the first time a load is issued and its completion (Unspecified)
system.cpu.lsq0.loadToUse::100-109               4522      0.00%     99.93% # Distribution of cycle latency between the first time a load is issued and its completion (Unspecified)
system.cpu.lsq0.loadToUse::110-119               2866      0.00%     99.93% # Distribution of cycle latency between the first time a load is issued and its completion (Unspecified)
system.cpu.lsq0.loadToUse::120-129              26246      0.01%     99.94% # Distribution of cycle latency between the first time a load is issued and its completion (Unspecified)
system.cpu.lsq0.loadToUse::130-139              40238      0.02%     99.96% # Distribution of cycle latency between the first time a load is issued and its completion (Unspecified)
system.cpu.lsq0.loadToUse::140-149               1856      0.00%     99.96% # Distribution of cycle latency between the first time a load is issued and its completion (Unspecified)
system.cpu.lsq0.loadToUse::150-159               3130      0.00%     99.96% # Distribution of cycle latency between the first time a load is issued and its completion (Unspecified)
system.cpu.lsq0.loadToUse::160-169               1989      0.00%     99.96% # Distribution of cycle latency between the first time a load is issued and its completion (Unspecified)
system.cpu.lsq0.loadToUse::170-179               1092      0.00%     99.96% # Distribution of cycle latency between the first time a load is issued and its completion (Unspecified)
[...]
system.mem_ctrl.dram.perBankRdBursts::7          5668                       # Per bank write bursts (Count)
system.mem_ctrl.dram.perBankRdBursts::8          5725                       # Per bank write bursts (Count)
system.mem_ctrl.dram.perBankRdBursts::9          5701                       # Per bank write bursts (Count)
system.mem_ctrl.dram.perBankRdBursts::10         5729                       # Per bank write bursts (Count)
system.mem_ctrl.dram.perBankRdBursts::11         5662                       # Per bank write bursts (Count)
system.mem_ctrl.dram.perBankRdBursts::12         5649                       # Per bank write bursts (Count)
system.mem_ctrl.dram.perBankRdBursts::13         5644                       # Per bank write bursts (Count)
system.mem_ctrl.dram.perBankRdBursts::14         5655                       # Per bank write bursts (Count)
system.mem_ctrl.dram.perBankRdBursts::15         5701                       # Per bank write bursts (Count)
system.mem_ctrl.dram.perBankRdBursts::16         5662                       # Per bank write bursts (Count)
system.mem_ctrl.dram.perBankRdBursts::17         5667                       # Per bank write bursts (Count)
system.mem_ctrl.dram.perBankRdBursts::18         5713                       # Per bank write bursts (Count)
system.mem_ctrl.dram.perBankRdBursts::19         5652                       # Per bank write bursts (Count)
system.mem_ctrl.dram.perBankRdBursts::20         5652                       # Per bank write bursts (Count)
system.mem_ctrl.dram.perBankRdBursts::21         5700                       # Per bank write bursts (Count)
system.mem_ctrl.dram.perBankRdBursts::22         5670                       # Per bank write bursts (Count)
system.mem_ctrl.dram.perBankRdBursts::23         5664                       # Per bank write bursts (Count)
system.mem_ctrl.dram.perBankRdBursts::24         5636                       # Per bank write bursts (Count)
system.mem_ctrl.dram.perBankRdBursts::25         5711                       # Per bank write bursts (Count)
system.mem_ctrl.dram.perBankRdBursts::26         5803                       # Per bank write bursts (Count)
system.mem_ctrl.dram.perBankRdBursts::27         5666                       # Per bank write bursts (Count)
system.mem_ctrl.dram.perBankRdBursts::28         5618                       # Per bank write bursts (Count)
system.mem_ctrl.dram.perBankRdBursts::29         5594                       # Per bank write bursts (Count)
system.mem_ctrl.dram.perBankRdBursts::30         5687                       # Per bank write bursts (Count)
system.mem_ctrl.dram.perBankRdBursts::31         5642                       # Per bank write bursts (Count)
system.mem_ctrl.dram.perBankWrBursts::0          3548                       # Per bank write bursts (Count)
system.mem_ctrl.dram.perBankWrBursts::1          3489                       # Per bank write bursts (Count)
system.mem_ctrl.dram.perBankWrBursts::2          3471                       # Per bank write bursts (Count)
system.mem_ctrl.dram.perBankWrBursts::3          3460                       # Per bank write bursts (Count)
system.mem_ctrl.dram.perBankWrBursts::4          3458                       # Per bank write bursts (Count)
system.mem_ctrl.dram.perBankWrBursts::5          3584                       # Per bank write bursts (Count)
system.mem_ctrl.dram.perBankWrBursts::6          3585                       # Per bank write bursts (Count)
system.mem_ctrl.dram.perBankWrBursts::7          3585                       # Per bank write bursts (Count)
system.mem_ctrl.dram.perBankWrBursts::8          3584                       # Per bank write bursts (Count)
system.mem_ctrl.dram.perBankWrBursts::9          3584                       # Per bank write bursts (Count)
system.mem_ctrl.dram.perBankWrBursts::10         3584                       # Per bank write bursts (Count)
system.mem_ctrl.dram.perBankWrBursts::11         3584                       # Per bank write bursts (Count)
system.mem_ctrl.dram.perBankWrBursts::12         3584                       # Per bank write bursts (Count)
system.mem_ctrl.dram.perBankWrBursts::13         3584                       # Per bank write bursts (Count)
system.mem_ctrl.dram.perBankWrBursts::14         3584                       # Per bank write bursts (Count)
system.mem_ctrl.dram.perBankWrBursts::15         3584                       # Per bank write bursts (Count)
system.mem_ctrl.dram.perBankWrBursts::16         3584                       # Per bank write bursts (Count)
system.mem_ctrl.dram.perBankWrBursts::17         3584                       # Per bank write bursts (Count)
system.mem_ctrl.dram.perBankWrBursts::18         3584                       # Per bank write bursts (Count)
system.mem_ctrl.dram.perBankWrBursts::19         3581                       # Per bank write bursts (Count)
system.mem_ctrl.dram.perBankWrBursts::20         3584                       # Per bank write bursts (Count)
system.mem_ctrl.dram.perBankWrBursts::21         3584                       # Per bank write bursts (Count)
system.mem_ctrl.dram.perBankWrBursts::22         3584                       # Per bank write bursts (Count)
system.mem_ctrl.dram.perBankWrBursts::23         3584                       # Per bank write bursts (Count)
system.mem_ctrl.dram.perBankWrBursts::24         3584                       # Per bank write bursts (Count)
system.mem_ctrl.dram.perBankWrBursts::25         3584                       # Per bank write bursts (Count)
system.mem_ctrl.dram.perBankWrBursts::26         3623                       # Per bank write bursts (Count)
system.mem_ctrl.dram.perBankWrBursts::27         3586                       # Per bank write bursts (Count)
system.mem_ctrl.dram.perBankWrBursts::28         3499                       # Per bank write bursts (Count)
system.mem_ctrl.dram.perBankWrBursts::29         3497                       # Per bank write bursts (Count)
system.mem_ctrl.dram.perBankWrBursts::30         3555                       # Per bank write bursts (Count)
system.mem_ctrl.dram.perBankWrBursts::31         3470                       # Per bank write bursts (Count)
system.mem_ctrl.dram.totQLat               4971395752                       # Total ticks spent queuing (Tick)
system.mem_ctrl.dram.totBusLat              607023760                       # Total ticks spent in databus transfers (Tick)
system.mem_ctrl.dram.totMemAccLat          8158088312                       # Total ticks spent from burst creation until serviced by the DRAM (Tick)
system.mem_ctrl.dram.avgQLat                 27288.37                       # Average queueing delay per DRAM burst ((Tick/Count))
system.mem_ctrl.dram.avgBusLat                3332.00                       # Average bus latency per DRAM burst ((Tick/Count))
system.mem_ctrl.dram.avgMemAccLat            44780.37                       # Average memory access latency per DRAM burst ((Tick/Count))
system.mem_ctrl.dram.readRowHits               118693                       # Number of row buffer hits during reads (Count)
system.mem_ctrl.dram.writeRowHits              101780                       # Number of row buffer hits during writes (Count)
system.mem_ctrl.dram.readRowHitRate             65.15                       # Row buffer hit rate for reads (Ratio)
system.mem_ctrl.dram.writeRowHitRate            89.34                       # Row buffer hit rate for writes (Ratio)
system.mem_ctrl.dram.bytesPerActivate::samples        75625                       # Bytes accessed per row activation (Byte)
system.mem_ctrl.dram.bytesPerActivate::mean   250.582109                       # Bytes accessed per row activation (Byte)
system.mem_ctrl.dram.bytesPerActivate::gmean   160.760024                       # Bytes accessed per row activation (Byte)
system.mem_ctrl.dram.bytesPerActivate::stdev   291.983689                       # Bytes accessed per row activation (Byte)
system.mem_ctrl.dram.bytesPerActivate::0-127        21471     28.39%     28.39% # Bytes accessed per row activation (Byte)
system.mem_ctrl.dram.bytesPerActivate::128-255        40253     53.23%     81.62% # Bytes accessed per row activation (Byte)
system.mem_ctrl.dram.bytesPerActivate::256-383          963      1.27%     82.89% # Bytes accessed per row activation (Byte)
system.mem_ctrl.dram.bytesPerActivate::384-511         1641      2.17%     85.06% # Bytes accessed per row activation (Byte)
system.mem_ctrl.dram.bytesPerActivate::512-639         1672      2.21%     87.27% # Bytes accessed per row activation (Byte)
system.mem_ctrl.dram.bytesPerActivate::640-767         1016      1.34%     88.62% # Bytes accessed per row activation (Byte)
system.mem_ctrl.dram.bytesPerActivate::768-895          381      0.50%     89.12% # Bytes accessed per row activation (Byte)
system.mem_ctrl.dram.bytesPerActivate::896-1023          924      1.22%     90.34% # Bytes accessed per row activation (Byte)
system.mem_ctrl.dram.bytesPerActivate::1024-1151         7304      9.66%    100.00% # Bytes accessed per row activation (Byte)
system.mem_ctrl.dram.bytesPerActivate::total        75625                       # Bytes accessed per row activation (Byte)
system.mem_ctrl.dram.bytesRead               11659520                       # Total bytes read (Byte)
system.mem_ctrl.dram.bytesWritten             7290816                       # Total bytes written (Byte)
system.mem_ctrl.dram.avgRdBW                46.759167                       # Average DRAM read bandwidth in MiBytes/s ((Byte/Second))
system.mem_ctrl.dram.avgWrBW                29.238981                       # Average DRAM write bandwidth in MiBytes/s ((Byte/Second))
system.mem_ctrl.dram.peakBW                  19207.00                       # Theoretical peak bandwidth in MiByte/s ((Byte/Second))
system.mem_ctrl.dram.busUtil                     0.40                       # Data bus utilization in percentage (Ratio)
system.mem_ctrl.dram.busUtilRead                 0.24                       # Data bus utilization in percentage for reads (Ratio)
system.mem_ctrl.dram.busUtilWrite                0.15                       # Data bus utilization in percentage for writes (Ratio)
system.mem_ctrl.dram.pageHitRate                74.46                       # Row buffer hit rate, read and write combined (Ratio)
system.mem_ctrl.dram.power_state.pwrStateResidencyTicks::UNDEFINED 249352605500                       # Cumulative time (in ticks) in various power states (Tick)
system.mem_ctrl.dram.rank0.actEnergy     117411656.544007                       # Energy for activate commands per rank (pJ) (Joule)
system.mem_ctrl.dram.rank0.preEnergy     156097292.097569                       # Energy for precharge commands per rank (pJ) (Joule)
system.mem_ctrl.dram.rank0.readEnergy    384638227.142359                       # Energy for read commands per rank (pJ) (Joule)
system.mem_ctrl.dram.rank0.writeEnergy   213678014.592002                       # Energy for write commands per rank (pJ) (Joule)
system.mem_ctrl.dram.rank0.refreshEnergy 44368103888.696220                       # Energy for refresh commands per rank (pJ) (Joule)
system.mem_ctrl.dram.rank0.actBackEnergy 88363320771.898224                       # Energy for active background per rank (pJ) (Joule)
system.mem_ctrl.dram.rank0.preBackEnergy 94882400076.705063                       # Energy for precharge background per rank (pJ) (Joule)
system.mem_ctrl.dram.rank0.actPowerDownEnergy            0                       # Energy for active power-down per rank (pJ) (Joule)
system.mem_ctrl.dram.rank0.prePowerDownEnergy            0                       # Energy for precharge power-down per rank (pJ) (Joule)
system.mem_ctrl.dram.rank0.selfRefreshEnergy            0                       # Energy for self refresh per rank (pJ) (Joule)
system.mem_ctrl.dram.rank0.totalEnergy   228485649927.683105                       # Total energy per rank (pJ) (Joule)
system.mem_ctrl.dram.rank0.averagePower    916.315470                       # Core power per rank (mW) (Watt)
system.mem_ctrl.dram.rank0.totalIdleTime            0                       # Total Idle time Per DRAM Rank (Tick)
system.mem_ctrl.dram.rank0.pwrStateTime::IDLE 144621832068                       # Time in different power states (Tick)
system.mem_ctrl.dram.rank0.pwrStateTime::REF  11209100000                       # Time in different power states (Tick)
system.mem_ctrl.dram.rank0.pwrStateTime::SREF            0                       # Time in different power states (Tick)
system.mem_ctrl.dram.rank0.pwrStateTime::PRE_PDN            0                       # Time in different power states (Tick)
system.mem_ctrl.dram.rank0.pwrStateTime::ACT  93521673432                       # Time in different power states (Tick)
system.mem_ctrl.dram.rank0.pwrStateTime::ACT_PDN            0                       # Time in different power states (Tick)
system.mem_ctrl.dram.rank1.actEnergy     118447082.208008                       # Energy for activate commands per rank (pJ) (Joule)
system.mem_ctrl.dram.rank1.preEnergy     157469730.902366                       # Energy for precharge commands per rank (pJ) (Joule)
system.mem_ctrl.dram.rank1.readEnergy    381668567.481559                       # Energy for read commands per rank (pJ) (Joule)
system.mem_ctrl.dram.rank1.writeEnergy   214486091.232003                       # Energy for write commands per rank (pJ) (Joule)
system.mem_ctrl.dram.rank1.refreshEnergy 44368103888.696220                       # Energy for refresh commands per rank (pJ) (Joule)
system.mem_ctrl.dram.rank1.actBackEnergy 92111757665.150818                       # Energy for active background per rank (pJ) (Joule)
system.mem_ctrl.dram.rank1.preBackEnergy 92002245175.673981                       # Energy for precharge background per rank (pJ) (Joule)
system.mem_ctrl.dram.rank1.actPowerDownEnergy            0                       # Energy for active power-down per rank (pJ) (Joule)
system.mem_ctrl.dram.rank1.prePowerDownEnergy            0                       # Energy for precharge power-down per rank (pJ) (Joule)
system.mem_ctrl.dram.rank1.selfRefreshEnergy            0                       # Energy for self refresh per rank (pJ) (Joule)
system.mem_ctrl.dram.rank1.totalEnergy   229354178201.353607                       # Total energy per rank (pJ) (Joule)
system.mem_ctrl.dram.rank1.averagePower    919.798603                       # Core power per rank (mW) (Watt)
system.mem_ctrl.dram.rank1.totalIdleTime            0                       # Total Idle time Per DRAM Rank (Tick)
system.mem_ctrl.dram.rank1.pwrStateTime::IDLE 140183789552                       # Time in different power states (Tick)
system.mem_ctrl.dram.rank1.pwrStateTime::REF  11209100000                       # Time in different power states (Tick)
system.mem_ctrl.dram.rank1.pwrStateTime::SREF            0                       # Time in different power states (Tick)
system.mem_ctrl.dram.rank1.pwrStateTime::PRE_PDN            0                       # Time in different power states (Tick)
system.mem_ctrl.dram.rank1.pwrStateTime::ACT  97959715948                       # Time in different power states (Tick)
system.mem_ctrl.dram.rank1.pwrStateTime::ACT_PDN            0                       # Time in different power states (Tick)
system.mem_ctrl.power_state.pwrStateResidencyTicks::UNDEFINED 249352605500                       # Cumulative time (in ticks) in various power states (Tick)
system.membus.transDist::ReadResp               64239                       # Transaction distribution (Count)
system.membus.transDist::WritebackDirty        113970                       # Transaction distribution (Count)
system.membus.transDist::CleanEvict             63471                       # Transaction distribution (Count)
system.membus.transDist::ReadExReq             117947                       # Transaction distribution (Count)
system.membus.transDist::ReadExResp            117947                       # Transaction distribution (Count)
system.membus.transDist::ReadSharedReq          64239                       # Transaction distribution (Count)
system.membus.pktCount_system.l2cache.mem_side_port::system.mem_ctrl.port       541813                       # Packet count per connected requestor and responder (Count)
system.membus.pktCount::total                  541813                       # Packet count per connected requestor and responder (Count)
system.membus.pktSize_system.l2cache.mem_side_port::system.mem_ctrl.port     18953984                       # Cumulative packet size per connected requestor and responder (Byte)
system.membus.pktSize::total                 18953984                       # Cumulative packet size per connected requestor and responder (Byte)
system.membus.snoops                                0                       # Total snoops (Count)
system.membus.snoopTraffic                          0                       # Total snoop traffic (Byte)
system.membus.snoopFanout::samples             182186                       # Request fanout histogram (Count)
system.membus.snoopFanout::mean                     0                       # Request fanout histogram (Count)
system.membus.snoopFanout::stdev                    0                       # Request fanout histogram (Count)
system.membus.snoopFanout::underflows               0      0.00%      0.00% # Request fanout histogram (Count)
system.membus.snoopFanout::0                   182186    100.00%    100.00% # Request fanout histogram (Count)
system.membus.snoopFanout::1                        0      0.00%    100.00% # Request fanout histogram (Count)
system.membus.snoopFanout::overflows                0      0.00%    100.00% # Request fanout histogram (Count)
system.membus.snoopFanout::min_value                0                       # Request fanout histogram (Count)
system.membus.snoopFanout::max_value                0                       # Request fanout histogram (Count)
system.membus.snoopFanout::total               182186                       # Request fanout histogram (Count)
system.membus.power_state.pwrStateResidencyTicks::UNDEFINED 249352605500                       # Cumulative time (in ticks) in various power states (Tick)
system.membus.reqLayer0.occupancy           407753500                       # Layer occupancy (ticks) (Tick)
system.membus.reqLayer0.utilization               0.0                       # Layer utilization (Ratio)
system.membus.respLayer0.occupancy          479490688                       # Layer occupancy (ticks) (Tick)
system.membus.respLayer0.utilization              0.0                       # Layer utilization (Ratio)
system.membus.snoop_filter.totRequests         359627                       # Total number of requests made to the snoop filter. (Count)
system.membus.snoop_filter.hitSingleRequests       177478                       # Number of requests hitting in the snoop filter with a single holder of the requested data. (Count)
system.membus.snoop_filter.hitMultiRequests            0                       # Number of requests hitting in the snoop filter with multiple (>1) holders of the requested data. (Count)
system.membus.snoop_filter.totSnoops                0                       # Total number of snoops made to the snoop filter. (Count)
system.membus.snoop_filter.hitSingleSnoops            0                       # Number of snoops hitting in the snoop filter with a single holder of the requested data. (Count)
system.membus.snoop_filter.hitMultiSnoops            0                       # Number of snoops hitting in the snoop filter with multiple (>1) holders of the requested data. (Count)
system.workload.inst.arm                            0                       # number of arm instructions executed (Count)
system.workload.inst.quiesce                        0                       # number of quiesce instructions executed (Count)

---------- End Simulation Statistics   ----------
