
---------- Begin Simulation Statistics ----------
simSeconds                                   0.231155                       # Number of seconds simulated (Second)
simTicks                                 231154642500                       # Number of ticks simulated (Tick)
finalTick                                231154642500                       # Number of ticks from beginning of simulation (restored from checkpoints and never reset) (Tick)
simFreq                                  1000000000000                       # The number of ticks per simulated second ((Tick/Second))
hostSeconds                                   3142.38                       # Real time elapsed on the host (Second)
hostTickRate                                 73560344                       # The number of ticks simulated per host second (ticks/s) ((Tick/Second))
hostMemory                                    2246776                       # Number of bytes of host memory used (Byte)
simInsts                                   1000000000                       # Number of instructions simulated (Count)
simOps                                     1132163591                       # Number of ops (including micro ops) simulated (Count)
hostInstRate                                   318230                       # Simulator instruction rate (inst/s) ((Count/Second))
hostOpRate                                     360288                       # Simulator op (including micro ops) rate (op/s) ((Count/Second))
system.clk_domain.clock                           500                       # Clock period in ticks (Tick)
system.clk_domain.voltage_domain.voltage            1                       # Voltage in Volts (Volt)
system.cpu.numCycles                        462309286                       # Number of cpu cycles simulated (Cycle)
system.cpu.numWorkItemsStarted                      0                       # Number of work items this cpu started (Count)
system.cpu.numWorkItemsCompleted                    0                       # Number of work items this cpu completed (Count)
system.cpu.instsAdded                      1235268026                       # Number of instructions added to the IQ (excludes non-spec) (Count)
system.cpu.nonSpecInstsAdded                     1935                       # Number of non-speculative instructions added to the IQ (Count)
system.cpu.instsIssued                     1195365736                       # Number of instructions issued (Count)
system.cpu.squashedInstsIssued                   5313                       # Number of squashed instructions issued (Count)
system.cpu.squashedInstsExamined            103106323                       # Number of squashed instructions iterated over during squash; mainly for profiling (Count)
system.cpu.squashedOperandsExamined         281405477                       # Number of squashed operands that are examined and possibly removed from graph (Count)
system.cpu.squashedNonSpecRemoved                  83                       # Number of squashed non-spec instructions that were removed (Count)
system.cpu.numIssuedDist::samples           462208754                       # Number of insts issued each cycle (Count)
system.cpu.numIssuedDist::mean               2.586203                       # Number of insts issued each cycle (Count)
system.cpu.numIssuedDist::stdev              1.930270                       # Number of insts issued each cycle (Count)
system.cpu.numIssuedDist::underflows                0      0.00%      0.00% # Number of insts issued each cycle (Count)
system.cpu.numIssuedDist::0                  64528336     13.96%     13.96% # Number of insts issued each cycle (Count)
system.cpu.numIssuedDist::1                  92499569     20.01%     33.97% # Number of insts issued each cycle (Count)
system.cpu.numIssuedDist::2                  90875597     19.66%     53.63% # Number of insts issued each cycle (Count)
system.cpu.numIssuedDist::3                  79982855     17.30%     70.94% # Number of insts issued each cycle (Count)
system.cpu.numIssuedDist::4                  53665200     11.61%     82.55% # Number of insts issued each cycle (Count)
system.cpu.numIssuedDist::5                  43031702      9.31%     91.86% # Number of insts issued each cycle (Count)
system.cpu.numIssuedDist::6                  20080077      4.34%     96.20% # Number of insts issued each cycle (Count)
system.cpu.numIssuedDist::7                   9496708      2.05%     98.26% # Number of insts issued each cycle (Count)
system.cpu.numIssuedDist::8                   8048710      1.74%    100.00% # Number of insts issued each cycle (Count)
system.cpu.numIssuedDist::overflows                 0      0.00%    100.00% # Number of insts issued each cycle (Count)
system.cpu.numIssuedDist::min_value                 0                       # Number of insts issued each cycle (Count)
system.cpu.numIssuedDist::max_value                 8                       # Number of insts issued each cycle (Count)
system.cpu.numIssuedDist::total             462208754                       # Number of insts issued each cycle (Count)
system.cpu.statFuBusy::No_OpClass                   0      0.00%      0.00% # attempts to use FU when none available (Count)
system.cpu.statFuBusy::IntAlu                 2650358     17.89%     17.89% # attempts to use FU when none available (Count)
system.cpu.statFuBusy::IntMult                      0      0.00%     17.89% # attempts to use FU when none available (Count)
system.cpu.statFuBusy::IntDiv                       0      0.00%     17.89% # attempts to use FU when none available (Count)
system.cpu.statFuBusy::FloatAdd                     0      0.00%     17.89% # attempts to use FU when none available (Count)
system.cpu.statFuBusy::FloatCmp                     0      0.00%     17.89% # attempts to use FU when none available (Count)
system.cpu.statFuBusy::FloatCvt                     0      0.00%     17.89% # attempts to use FU when none available (Count)
system.cpu.statFuBusy::FloatMult                    0      0.00%     17.89% # attempts to use FU when none available (Count)
system.cpu.statFuBusy::FloatMultAcc                 0      0.00%     17.89% # attempts to use FU when none available (Count)
system.cpu.statFuBusy::FloatDiv                     0      0.00%     17.89% # attempts to use FU when none available (Count)
system.cpu.statFuBusy::FloatMisc                    0      0.00%     17.89% # attempts to use FU when none available (Count)
system.cpu.statFuBusy::FloatSqrt                    0      0.00%     17.89% # attempts to use FU when none available (Count)
system.cpu.statFuBusy::SimdAdd                      0      0.00%     17.89% # attempts to use FU when none available (Count)
system.cpu.statFuBusy::SimdAddAcc                   0      0.00%     17.89% # attempts to use FU when none available (Count)
system.cpu.statFuBusy::SimdAlu                      0      0.00%     17.89% # attempts to use FU when none available (Count)
system.cpu.statFuBusy::SimdCmp                      0      0.00%     17.89% # attempts to use FU when none available (Count)
system.cpu.statFuBusy::SimdCvt                      0      0.00%     17.89% # attempts to use FU when none available (Count)
system.cpu.statFuBusy::SimdMisc                     0      0.00%     17.89% # attempts to use FU when none available (Count)
system.cpu.statFuBusy::SimdMult                     0      0.00%     17.89% # attempts to use FU when none available (Count)
system.cpu.statFuBusy::SimdMultAcc                  0      0.00%     17.89% # attempts to use FU when none available (Count)
system.cpu.statFuBusy::SimdShift                    0      0.00%     17.89% # attempts to use FU when none available (Count)
system.cpu.statFuBusy::SimdShiftAcc                 0      0.00%     17.89% # attempts to use FU when none available (Count)
system.cpu.statFuBusy::SimdDiv                      0      0.00%     17.89% # attempts to use FU when none available (Count)
system.cpu.statFuBusy::SimdSqrt                     0      0.00%     17.89% # attempts to use FU when none available (Count)
system.cpu.statFuBusy::SimdFloatAdd                 0      0.00%     17.89% # attempts to use FU when none available (Count)
system.cpu.statFuBusy::SimdFloatAlu                 0      0.00%     17.89% # attempts to use FU when none available (Count)
system.cpu.statFuBusy::SimdFloatCmp                 0      0.00%     17.89% # attempts to use FU when none available (Count)
system.cpu.statFuBusy::SimdFloatCvt                 0      0.00%     17.89% # attempts to use FU when none available (Count)
system.cpu.statFuBusy::SimdFloatDiv                 0      0.00%     17.89% # attempts to use FU when none available (Count)
system.cpu.statFuBusy::SimdFloatMisc                0      0.00%     17.89% # attempts to use FU when none available (Count)
system.cpu.statFuBusy::SimdFloatMult                0      0.00%     17.89% # attempts to use FU when none available (Count)
system.cpu.statFuBusy::SimdFloatMultAcc             0      0.00%     17.89% # attempts to use FU when none available (Count)
system.cpu.statFuBusy::SimdFloatSqrt                0      0.00%     17.89% # attempts to use FU when none available (Count)
system.cpu.statFuBusy::SimdReduceAdd                0      0.00%     17.89% # attempts to use FU when none available (Count)
system.cpu.statFuBusy::SimdReduceAlu                0      0.00%     17.89% # attempts to use FU when none available (Count)
system.cpu.statFuBusy::SimdReduceCmp                0      0.00%     17.89% # attempts to use FU when none available (Count)
system.cpu.statFuBusy::SimdFloatReduceAdd            0      0.00%     17.89% # attempts to use FU when none available (Count)
system.cpu.statFuBusy::SimdFloatReduceCmp            0      0.00%     17.89% # attempts to use FU when none available (Count)
system.cpu.statFuBusy::SimdAes                      0      0.00%     17.89% # attempts to use FU when none available (Count)
system.cpu.statFuBusy::SimdAesMix                   0      0.00%     17.89% # attempts to use FU when none available (Count)
system.cpu.statFuBusy::SimdSha1Hash                 0      0.00%     17.89% # attempts to use FU when none available (Count)
system.cpu.statFuBusy::SimdSha1Hash2                0      0.00%     17.89% # attempts to use FU when none available (Count)
system.cpu.statFuBusy::SimdSha256Hash               0      0.00%     17.89% # attempts to use FU when none available (Count)
system.cpu.statFuBusy::SimdSha256Hash2              0      0.00%     17.89% # attempts to use FU when none available (Count)
system.cpu.statFuBusy::SimdShaSigma2                0      0.00%     17.89% # attempts to use FU when none available (Count)
system.cpu.statFuBusy::SimdShaSigma3                0      0.00%     17.89% # attempts to use FU when none available (Count)
system.cpu.statFuBusy::SimdPredAlu                  0      0.00%     17.89% # attempts to use FU when none available (Count)
system.cpu.statFuBusy::MemRead                8631278     58.26%     76.15% # attempts to use FU when none available (Count)
system.cpu.statFuBusy::MemWrite               3533610     23.85%    100.00% # attempts to use FU when none available (Count)
system.cpu.statFuBusy::FloatMemRead                 0      0.00%    100.00% # attempts to use FU when none available (Count)
system.cpu.statFuBusy::FloatMemWrite                0      0.00%    100.00% # attempts to use FU when none available (Count)
system.cpu.statFuBusy::IprAccess                    0      0.00%    100.00% # attempts to use FU when none available (Count)
system.cpu.statFuBusy::InstPrefetch                 0      0.00%    100.00% # attempts to use FU when none available (Count)
system.cpu.statIssuedInstType_0::No_OpClass           24      0.00%      0.00% # Number of instructions issued per FU type, per thread (Count)
system.cpu.statIssuedInstType_0::IntAlu     759444701     63.53%     63.53% # Number of instructions issued per FU type, per thread (Count)
system.cpu.statIssuedInstType_0::IntMult      6287934      0.53%     64.06% # Number of instructions issued per FU type, per thread (Count)
system.cpu.statIssuedInstType_0::IntDiv             0      0.00%     64.06% # Number of instructions issued per FU type, per thread (Count)
system.cpu.statIssuedInstType_0::FloatAdd            0      0.00%     64.06% # Number of instructions issued per FU type, per thread (Count)
system.cpu.statIssuedInstType_0::FloatCmp            0      0.00%     64.06% # Number of instructions issued per FU type, per thread (Count)
system.cpu.statIssuedInstType_0::FloatCvt            0      0.00%     64.06% # Number of instructions issued per FU type, per thread (Count)
system.cpu.statIssuedInstType_0::FloatMult            0      0.00%     64.06% # Number of instructions issued per FU type, per thread (Count)
system.cpu.statIssuedInstType_0::FloatMultAcc            0      0.00%     64.06% # Number of instructions issued per FU type, per thread (Count)
system.cpu.statIssuedInstType_0::FloatDiv            0      0.00%     64.06% # Number of instructions issued per FU type, per thread (Count)
system.cpu.statIssuedInstType_0::FloatMisc            0      0.00%     64.06% # Number of instructions issued per FU type, per thread (Count)
system.cpu.statIssuedInstType_0::FloatSqrt            0      0.00%     64.06% # Number of instructions issued per FU type, per thread (Count)
system.cpu.statIssuedInstType_0::SimdAdd            0      0.00%     64.06% # Number of instructions issued per FU type, per thread (Count)
system.cpu.statIssuedInstType_0::SimdAddAcc            0      0.00%     64.06% # Number of instructions issued per FU type, per thread (Count)
system.cpu.statIssuedInstType_0::SimdAlu            0      0.00%     64.06% # Number of instructions issued per FU type, per thread (Count)
system.cpu.statIssuedInstType_0::SimdCmp            0      0.00%     64.06% # Number of instructions issued per FU type, per thread (Count)
system.cpu.statIssuedInstType_0::SimdCvt            0      0.00%     64.06% # Number of instructions issued per FU type, per thread (Count)
system.cpu.statIssuedInstType_0::SimdMisc            0      0.00%     64.06% # Number of instructions issued per FU type, per thread (Count)
system.cpu.statIssuedInstType_0::SimdMult            0      0.00%     64.06% # Number of instructions issued per FU type, per thread (Count)
system.cpu.statIssuedInstType_0::SimdMultAcc            0      0.00%     64.06% # Number of instructions issued per FU type, per thread (Count)
system.cpu.statIssuedInstType_0::SimdShift            0      0.00%     64.06% # Number of instructions issued per FU type, per thread (Count)
system.cpu.statIssuedInstType_0::SimdShiftAcc            0      0.00%     64.06% # Number of instructions issued per FU type, per thread (Count)
system.cpu.statIssuedInstType_0::SimdDiv            0      0.00%     64.06% # Number of instructions issued per FU type, per thread (Count)
system.cpu.statIssuedInstType_0::SimdSqrt            0      0.00%     64.06% # Number of instructions issued per FU type, per thread (Count)
system.cpu.statIssuedInstType_0::SimdFloatAdd            0      0.00%     64.06% # Number of instructions issued per FU type, per thread (Count)
system.cpu.statIssuedInstType_0::SimdFloatAlu            0      0.00%     64.06% # Number of instructions issued per FU type, per thread (Count)
system.cpu.statIssuedInstType_0::SimdFloatCmp            0      0.00%     64.06% # Number of instructions issued per FU type, per thread (Count)
system.cpu.statIssuedInstType_0::SimdFloatCvt            0      0.00%     64.06% # Number of instructions issued per FU type, per thread (Count)
system.cpu.statIssuedInstType_0::SimdFloatDiv            0      0.00%     64.06% # Number of instructions issued per FU type, per thread (Count)
system.cpu.statIssuedInstType_0::SimdFloatMisc            0      0.00%     64.06% # Number of instructions issued per FU type, per thread (Count)
system.cpu.statIssuedInstType_0::SimdFloatMult            0      0.00%     64.06% # Number of instructions issued per FU type, per thread (Count)
system.cpu.statIssuedInstType_0::SimdFloatMultAcc            0      0.00%     64.06% # Number of instructions issued per FU type, per thread (Count)
system.cpu.statIssuedInstType_0::SimdFloatSqrt            0      0.00%     64.06% # Number of instructions issued per FU type, per thread (Count)
system.cpu.statIssuedInstType_0::SimdReduceAdd            0      0.00%     64.06% # Number of instructions issued per FU type, per thread (Count)
system.cpu.statIssuedInstType_0::SimdReduceAlu            0      0.00%     64.06% # Number of instructions issued per FU type, per thread (Count)
system.cpu.statIssuedInstType_0::SimdReduceCmp            0      0.00%     64.06% # Number of instructions issued per FU type, per thread (Count)
system.cpu.statIssuedInstType_0::SimdFloatReduceAdd            0      0.00%     64.06% # Number of instructions issued per FU type, per thread (Count)
system.cpu.statIssuedInstType_0::SimdFloatReduceCmp            0      0.00%     64.06% # Number of instructions issued per FU type, per thread (Count)
system.cpu.statIssuedInstType_0::SimdAes            0      0.00%     64.06% # Number of instructions issued per FU type, per thread (Count)
system.cpu.statIssuedInstType_0::SimdAesMix            0      0.00%     64.06% # Number of instructions issued per FU type, per thread (Count)
system.cpu.statIssuedInstType_0::SimdSha1Hash            0      0.00%     64.06% # Number of instructions issued per FU type, per thread (Count)
system.cpu.statIssuedInstType_0::SimdSha1Hash2            0      0.00%     64.06% # Number of instructions issued per FU type, per thread (Count)
system.cpu.statIssuedInstType_0::SimdSha256Hash            0      0.00%     64.06% # Number of instructions issued per FU type, per thread (Count)
system.cpu.statIssuedInstType_0::SimdSha256Hash2            0      0.00%     64.06% # Number of instructions issued per FU type, per thread (Count)
system.cpu.statIssuedInstType_0::SimdShaSigma2            0      0.00%     64.06% # Number of instructions issued per FU type, per thread (Count)
system.cpu.statIssuedInstType_0::SimdShaSigma3            0      0.00%     64.06% # Number of instructions issued per FU type, per thread (Count)
system.cpu.statIssuedInstType_0::SimdPredAlu            0      0.00%     64.06% # Number of instructions issued per FU type, per thread (Count)
system.cpu.statIssuedInstType_0::MemRead    277239453     23.19%     87.25% # Number of instructions issued per FU type, per thread (Count)
system.cpu.statIssuedInstType_0::MemWrite    152393624     12.75%    100.00% # Number of instructions issued per FU type, per thread (Count)
system.cpu.statIssuedInstType_0::FloatMemRead            0      0.00%    100.00% # Number of instructions issued per FU type, per thread (Count)
system.cpu.statIssuedInstType_0::FloatMemWrite            0      0.00%    100.00% # Number of instructions issued per FU type, per thread (Count)
system.cpu.statIssuedInstType_0::IprAccess            0      0.00%    100.00% # Number of instructions issued per FU type, per thread (Count)
system.cpu.statIssuedInstType_0::InstPrefetch            0      0.00%    100.00% # Number of instructions issued per FU type, per thread (Count)
system.cpu.statIssuedInstType_0::total     1195365736                       # Number of instructions issued per FU type, per thread (Count)
system.cpu.issueRate                         2.585641                       # Inst issue rate ((Count/Cycle))
system.cpu.fuBusy                            14815246                       # FU busy when requested (Count)
system.cpu.fuBusyRate                        0.012394                       # FU busy rate (busy events/executed inst) ((Count/Count))
system.cpu.intInstQueueReads               2867760785                       # Number of integer instruction queue reads (Count)
system.cpu.intInstQueueWrites              1338396058                       # Number of integer instruction queue writes (Count)
system.cpu.intInstQueueWakeupAccesses      1168366287                       # Number of integer instruction queue wakeup accesses (Count)
system.cpu.fpInstQueueReads                         0                       # Number of floating instruction queue reads (Count)
system.cpu.fpInstQueueWrites                        0                       # Number of floating instruction queue writes (Count)
system.cpu.fpInstQueueWakeupAccesses                0                       # Number of floating instruction queue wakeup accesses (Count)
system.cpu.vecInstQueueReads                        0                       # Number of vector instruction queue reads (Count)
system.cpu.vecInstQueueWrites                       0                       # Number of vector instruction queue writes (Count)
system.cpu.vecInstQueueWakeupAccesses               0                       # Number of vector instruction queue wakeup accesses (Count)
system.cpu.intAluAccesses                  1210180958                       # Number of integer alu accesses (Count)
system.cpu.fpAluAccesses                            0                       # Number of floating point alu accesses (Count)
system.cpu.vecAluAccesses                           0                       # Number of vector alu accesses (Count)
system.cpu.numInsts                        1191197014                       # Number of executed instructions (Count)
system.cpu.numLoadInsts                     276015949                       # Number of load instructions executed (Count)
system.cpu.numSquashedInsts                   4168722                       # Number of squashed instructions skipped in execute (Count)
system.cpu.numSwp                                   0                       # Number of swp insts executed (Count)
system.cpu.numNop                                   0                       # Number of nop insts executed (Count)
system.cpu.numRefs                          427149944                       # Number of memory reference insts executed (Count)
system.cpu.numBranches                      194726597                       # Number of branches executed (Count)
system.cpu.numStoreInsts                    151133995                       # Number of stores executed (Count)
system.cpu.numRate                           2.576624                       # Inst execution rate ((Count/Cycle))
system.cpu.timesIdled                            3747                       # Number of times that the entire CPU went into an idle state and unscheduled itself (Count)
system.cpu.idleCycles                          100532                       # Total number of cycles that the CPU has spent unscheduled due to idling (Cycle)
system.cpu.committedInsts                  1000000000                       # Number of Instructions Simulated (Count)
system.cpu.committedOps                    1132163591                       # Number of Ops (including micro ops) Simulated (Count)
system.cpu.cpi                               0.462309                       # CPI: Cycles Per Instruction ((Cycle/Count))
system.cpu.totalCpi                          0.462309                       # CPI: Total CPI of All Threads ((Cycle/Count))
system.cpu.ipc                               2.163054                       # IPC: Instructions Per Cycle ((Count/Cycle))
system.cpu.totalIpc                          2.163054                       # IPC: Total IPC of All Threads ((Count/Cycle))
system.cpu.intRegfileReads                 1357756984                       # Number of integer regfile reads (Count)
system.cpu.intRegfileWrites                 689759464                       # Number of integer regfile writes (Count)
system.cpu.vecRegfileReads                         16                       # number of vector regfile reads (Count)
system.cpu.ccRegfileReads                  4325694597                       # number of cc regfile reads (Count)
system.cpu.ccRegfileWrites                  606219449                       # number of cc regfile writes (Count)
system.cpu.miscRegfileReads                 401837806                       # number of misc regfile reads (Count)
system.cpu.miscRegfileWrites                     1709                       # number of misc regfile writes (Count)
system.cpu.MemDepUnit__0.insertedLoads      268235149                       # Number of loads inserted to the mem dependence unit. (Count)
system.cpu.MemDepUnit__0.insertedStores     154930383                       # Number of stores inserted to the mem dependence unit. (Count)
system.cpu.MemDepUnit__0.conflictingLoads     49901151                       # Number of conflicting loads. (Count)
system.cpu.MemDepUnit__0.conflictingStores     26549127                       # Number of conflicting stores. (Count)
system.cpu.MemDepUnit__1.insertedLoads              0                       # Number of loads inserted to the mem dependence unit. (Count)
system.cpu.MemDepUnit__1.insertedStores             0                       # Number of stores inserted to the mem dependence unit. (Count)
system.cpu.MemDepUnit__1.conflictingLoads            0                       # Number of conflicting loads. (Count)
system.cpu.MemDepUnit__1.conflictingStores            0                       # Number of conflicting stores. (Count)
system.cpu.MemDepUnit__2.insertedLoads              0                       # Number of loads inserted to the mem dependence unit. (Count)
system.cpu.MemDepUnit__2.insertedStores             0                       # Number of stores inserted to the mem dependence unit. (Count)
system.cpu.MemDepUnit__2.conflictingLoads            0                       # Number of conflicting loads. (Count)
system.cpu.MemDepUnit__2.conflictingStores            0                       # Number of conflicting stores. (Count)
system.cpu.MemDepUnit__3.insertedLoads              0                       # Number of loads inserted to the mem dependence unit. (Count)
system.cpu.MemDepUnit__3.insertedStores             0                       # Number of stores inserted to the mem dependence unit. (Count)
system.cpu.MemDepUnit__3.conflictingLoads            0                       # Number of conflicting loads. (Count)
system.cpu.MemDepUnit__3.conflictingStores            0                       # Number of conflicting stores. (Count)
system.cpu.branchPred.lookups               231963963                       # Number of BP lookups (Count)
system.cpu.branchPred.condPredicted         175933344                       # Number of conditional branches predicted (Count)
system.cpu.branchPred.condIncorrect           5428144                       # Number of conditional branches incorrect (Count)
system.cpu.branchPred.BTBLookups             71291540                       # Number of BTB lookups (Count)
system.cpu.branchPred.BTBHits                65441032                       # Number of BTB hits (Count)
system.cpu.branchPred.BTBHitRatio            0.917935                       # BTB Hit Ratio (Ratio)
system.cpu.branchPred.RASUsed                25484151                       # Number of times the RAS was used to get a target. (Count)
system.cpu.branchPred.RASIncorrect               1095                       # Number of incorrect RAS predictions. (Count)
system.cpu.branchPred.indirectLookups         2509841                       # Number of indirect predictor lookups. (Count)
system.cpu.branchPred.indirectHits            2508363                       # Number of indirect target hits. (Count)
system.cpu.branchPred.indirectMisses             1478                       # Number of indirect misses. (Count)
system.cpu.branchPred.indirectMispredicted          343                       # Number of mispredicted indirect branches. (Count)
system.cpu.commit.commitSquashedInsts       103013175                       # The number of squashed insts skipped by commit (Count)
system.cpu.commit.commitNonSpecStalls            1852                       # The number of times commit has been forced to stall to communicate backwards (Count)
system.cpu.commit.branchMispredicts           2922614                       # The number of times a branch was mispredicted (Count)
system.cpu.commit.numCommittedDist::samples    447543244                       # Number of insts commited each cycle (Count)
system.cpu.commit.numCommittedDist::mean     2.529730                       # Number of insts commited each cycle (Count)
system.cpu.commit.numCommittedDist::stdev     2.819780                       # Number of insts commited each cycle (Count)
system.cpu.commit.numCommittedDist::underflows            0      0.00%      0.00% # Number of insts commited each cycle (Count)
system.cpu.commit.numCommittedDist::0       111893061     25.00%     25.00% # Number of insts commited each cycle (Count)
system.cpu.commit.numCommittedDist::1       131357034     29.35%     54.35% # Number of insts commited each cycle (Count)
system.cpu.commit.numCommittedDist::2        70094706     15.66%     70.01% # Number of insts commited each cycle (Count)
system.cpu.commit.numCommittedDist::3        13767343      3.08%     73.09% # Number of insts commited each cycle (Count)
system.cpu.commit.numCommittedDist::4        21518195      4.81%     77.90% # Number of insts commited each cycle (Count)
system.cpu.commit.numCommittedDist::5        11856283      2.65%     80.55% # Number of insts commited each cycle (Count)
system.cpu.commit.numCommittedDist::6         5986689      1.34%     81.89% # Number of insts commited each cycle (Count)
system.cpu.commit.numCommittedDist::7        10518677      2.35%     84.24% # Number of insts commited each cycle (Count)
system.cpu.commit.numCommittedDist::8        70551256     15.76%    100.00% # Number of insts commited each cycle (Count)
system.cpu.commit.numCommittedDist::overflows            0      0.00%    100.00% # Number of insts commited each cycle (Count)
system.cpu.commit.numCommittedDist::min_value            0                       # Number of insts commited each cycle (Count)
system.cpu.commit.numCommittedDist::max_value            8                       # Number of insts commited each cycle (Count)
system.cpu.commit.numCommittedDist::total    447543244                       # Number of insts commited each cycle (Count)
system.cpu.commit.instsCommitted           1000000000                       # Number of instructions committed (Count)
system.cpu.commit.opsCommitted             1132163591                       # Number of ops (including micro ops) committed (Count)
system.cpu.commit.memRefs                   397529001                       # Number of memory references committed (Count)
system.cpu.commit.loads                     248983110                       # Number of loads committed (Count)
system.cpu.commit.amos                              0                       # Number of atomic instructions committed (Count)
system.cpu.commit.membars                         431                       # Number of memory barriers committed (Count)
system.cpu.commit.branches                  188421440                       # Number of branches committed (Count)
system.cpu.commit.vectorInstructions                0                       # Number of committed Vector instructions. (Count)
system.cpu.commit.floating                          0                       # Number of committed floating point instructions. (Count)
system.cpu.commit.integer                   982994693                       # Number of committed integer instructions. (Count)
system.cpu.commit.functionCalls              18373461                       # Number of function calls committed. (Count)
system.cpu.commit.committedInstType_0::No_OpClass            0      0.00%      0.00% # Class of committed instruction (Count)
system.cpu.commit.committedInstType_0::IntAlu    728754673     64.37%     64.37% # Class of committed instruction (Count)
system.cpu.commit.committedInstType_0::IntMult      5879917      0.52%     64.89% # Class of committed instruction (Count)
system.cpu.commit.committedInstType_0::IntDiv            0      0.00%     64.89% # Class of committed instruction (Count)
system.cpu.commit.committedInstType_0::FloatAdd            0      0.00%     64.89% # Class of committed instruction (Count)
system.cpu.commit.committedInstType_0::FloatCmp            0      0.00%     64.89% # Class of committed instruction (Count)
system.cpu.commit.committedInstType_0::FloatCvt            0      0.00%     64.89% # Class of committed instruction (Count)
system.cpu.commit.committedInstType_0::FloatMult            0      0.00%     64.89% # Class of committed instruction (Count)
system.cpu.commit.committedInstType_0::FloatMultAcc            0      0.00%     64.89% # Class of committed instruction (Count)
system.cpu.commit.committedInstType_0::FloatDiv            0      0.00%     64.89% # Class of committed instruction (Count)
system.cpu.commit.committedInstType_0::FloatMisc            0      0.00%     64.89% # Class of committed instruction (Count)
system.cpu.commit.committedInstType_0::FloatSqrt            0      0.00%     64.89% # Class of committed instruction (Count)
system.cpu.commit.committedInstType_0::SimdAdd            0      0.00%     64.89% # Class of committed instruction (Count)
system.cpu.commit.committedInstType_0::SimdAddAcc            0      0.00%     64.89% # Class of committed instruction (Count)
system.cpu.commit.committedInstType_0::SimdAlu            0      0.00%     64.89% # Class of committed instruction (Count)
system.cpu.commit.committedInstType_0::SimdCmp            0      0.00%     64.89% # Class of committed instruction (Count)
system.cpu.commit.committedInstType_0::SimdCvt            0      0.00%     64.89% # Class of committed instruction (Count)
system.cpu.commit.committedInstType_0::SimdMisc            0      0.00%     64.89% # Class of committed instruction (Count)
system.cpu.commit.committedInstType_0::SimdMult            0      0.00%     64.89% # Class of committed instruction (Count)
system.cpu.commit.committedInstType_0::SimdMultAcc            0      0.00%     64.89% # Class of committed instruction (Count)
system.cpu.commit.committedInstType_0::SimdShift            0      0.00%     64.89% # Class of committed instruction (Count)
system.cpu.commit.committedInstType_0::SimdShiftAcc            0      0.00%     64.89% # Class of committed instruction (Count)
system.cpu.commit.committedInstType_0::SimdDiv            0      0.00%     64.89% # Class of committed instruction (Count)
system.cpu.commit.committedInstType_0::SimdSqrt            0      0.00%     64.89% # Class of committed instruction (Count)
system.cpu.commit.committedInstType_0::SimdFloatAdd            0      0.00%     64.89% # Class of committed instruction (Count)
system.cpu.commit.committedInstType_0::SimdFloatAlu            0      0.00%     64.89% # Class of committed instruction (Count)
system.cpu.commit.committedInstType_0::SimdFloatCmp            0      0.00%     64.89% # Class of committed instruction (Count)
system.cpu.commit.committedInstType_0::SimdFloatCvt            0      0.00%     64.89% # Class of committed instruction (Count)
system.cpu.commit.committedInstType_0::SimdFloatDiv            0      0.00%     64.89% # Class of committed instruction (Count)
system.cpu.commit.committedInstType_0::SimdFloatMisc            0      0.00%     64.89% # Class of committed instruction (Count)
system.cpu.commit.committedInstType_0::SimdFloatMult            0      0.00%     64.89% # Class of committed instruction (Count)
system.cpu.commit.committedInstType_0::SimdFloatMultAcc            0      0.00%     64.89% # Class of committed instruction (Count)
system.cpu.commit.committedInstType_0::SimdFloatSqrt            0      0.00%     64.89% # Class of committed instruction (Count)
system.cpu.commit.committedInstType_0::SimdReduceAdd            0      0.00%     64.89% # Class of committed instruction (Count)
system.cpu.commit.committedInstType_0::SimdReduceAlu            0      0.00%     64.89% # Class of committed instruction (Count)
system.cpu.commit.committedInstType_0::SimdReduceCmp            0      0.00%     64.89% # Class of committed instruction (Count)
system.cpu.commit.committedInstType_0::SimdFloatReduceAdd            0      0.00%     64.89% # Class of committed instruction (Count)
system.cpu.commit.committedInstType_0::SimdFloatReduceCmp            0      0.00%     64.89% # Class of committed instruction (Count)
system.cpu.commit.committedInstType_0::SimdAes            0      0.00%     64.89% # Class of committed instruction (Count)
system.cpu.commit.committedInstType_0::SimdAesMix            0      0.00%     64.89% # Class of committed instruction (Count)
system.cpu.commit.committedInstType_0::SimdSha1Hash            0      0.00%     64.89% # Class of committed instruction (Count)
system.cpu.commit.committedInstType_0::SimdSha1Hash2            0      0.00%     64.89% # Class of committed instruction (Count)
system.cpu.commit.committedInstType_0::SimdSha256Hash            0      0.00%     64.89% # Class of committed instruction (Count)
system.cpu.commit.committedInstType_0::SimdSha256Hash2            0      0.00%     64.89% # Class of committed instruction (Count)
system.cpu.commit.committedInstType_0::SimdShaSigma2            0      0.00%     64.89% # Class of committed instruction (Count)
system.cpu.commit.committedInstType_0::SimdShaSigma3            0      0.00%     64.89% # Class of committed instruction (Count)
system.cpu.commit.committedInstType_0::SimdPredAlu            0      0.00%     64.89% # Class of committed instruction (Count)
system.cpu.commit.committedInstType_0::MemRead    248983110     21.99%     86.88% # Class of committed instruction (Count)
system.cpu.commit.committedInstType_0::MemWrite    148545891     13.12%    100.00% # Class of committed instruction (Count)
system.cpu.commit.committedInstType_0::FloatMemRead            0      0.00%    100.00% # Class of committed instruction (Count)
system.cpu.commit.committedInstType_0::FloatMemWrite            0      0.00%    100.00% # Class of committed instruction (Count)
system.cpu.commit.committedInstType_0::IprAccess            0      0.00%    100.00% # Class of committed instruction (Count)
system.cpu.commit.committedInstType_0::InstPrefetch            0      0.00%    100.00% # Class of committed instruction (Count)
system.cpu.commit.committedInstType_0::total   1132163591                       # Class of committed instruction (Count)
system.cpu.commit.commitEligibleSamples      70551256                       # number cycles where commit BW limit reached (Cycle)
system.cpu.dcache.demandHits::cpu.data      364427483                       # number of demand (read+write) hits (Count)
system.cpu.dcache.demandHits::total         364427483                       # number of demand (read+write) hits (Count)
system.cpu.dcache.overallHits::cpu.data     364427483                       # number of overall hits (Count)
system.cpu.dcache.overallHits::total        364427483                       # number of overall hits (Count)
system.cpu.dcache.demandMisses::cpu.data      1601406                       # number of demand (read+write) misses (Count)
system.cpu.dcache.demandMisses::total         1601406                       # number of demand (read+write) misses (Count)
system.cpu.dcache.overallMisses::cpu.data      1601406                       # number of overall misses (Count)
system.cpu.dcache.overallMisses::total        1601406                       # number of overall misses (Count)
system.cpu.dcache.demandMissLatency::cpu.data 120925701972                       # number of demand (read+write) miss ticks (Tick)
system.cpu.dcache.demandMissLatency::total 120925701972                       # number of demand (read+write) miss ticks (Tick)
system.cpu.dcache.overallMissLatency::cpu.data 120925701972                       # number of overall miss ticks (Tick)
system.cpu.dcache.overallMissLatency::total 120925701972                       # number of overall miss ticks (Tick)
system.cpu.dcache.demandAccesses::cpu.data    366028889                       # number of demand (read+write) accesses (Count)
system.cpu.dcache.demandAccesses::total     366028889                       # number of demand (read+write) accesses (Count)
system.cpu.dcache.overallAccesses::cpu.data    366028889                       # number of overall (read+write) accesses (Count)
system.cpu.dcache.overallAccesses::total    366028889                       # number of overall (read+write) accesses (Count)
system.cpu.dcache.demandMissRate::cpu.data     0.004375                       # miss rate for demand accesses (Ratio)
system.cpu.dcache.demandMissRate::total      0.004375                       # miss rate for demand accesses (Ratio)
system.cpu.dcache.overallMissRate::cpu.data     0.004375                       # miss rate for overall accesses (Ratio)
system.cpu.dcache.overallMissRate::total     0.004375                       # miss rate for overall accesses (Ratio)
system.cpu.dcache.demandAvgMissLatency::cpu.data 75512.207380                       # average overall miss latency in ticks ((Tick/Count))
system.cpu.dcache.demandAvgMissLatency::total 75512.207380                       # average overall miss latency in ticks ((Tick/Count))
system.cpu.dcache.overallAvgMissLatency::cpu.data 75512.207380                       # average overall miss latency ((Tick/Count))
system.cpu.dcache.overallAvgMissLatency::total 75512.207380                       # average overall miss latency ((Tick/Count))
system.cpu.dcache.blockedCycles::no_mshrs         4881                       # number of cycles access was blocked (Cycle)
system.cpu.dcache.blockedCycles::no_targets          318                       # number of cycles access was blocked (Cycle)
system.cpu.dcache.blockedCauses::no_mshrs          108                       # number of times access was blocked (Count)
system.cpu.dcache.blockedCauses::no_targets            4                       # number of times access was blocked (Count)
system.cpu.dcache.avgBlocked::no_mshrs      45.194444                       # average number of cycles each access was blocked ((Cycle/Count))
system.cpu.dcache.avgBlocked::no_targets    79.500000                       # average number of cycles each access was blocked ((Cycle/Count))
system.cpu.dcache.writebacks::writebacks       124111                       # number of writebacks (Count)
system.cpu.dcache.writebacks::total            124111                       # number of writebacks (Count)
system.cpu.dcache.demandMshrHits::cpu.data      1380749                       # number of demand (read+write) MSHR hits (Count)
system.cpu.dcache.demandMshrHits::total       1380749                       # number of demand (read+write) MSHR hits (Count)
system.cpu.dcache.overallMshrHits::cpu.data      1380749                       # number of overall MSHR hits (Count)
system.cpu.dcache.overallMshrHits::total      1380749                       # number of overall MSHR hits (Count)
system.cpu.dcache.demandMshrMisses::cpu.data       220657                       # number of demand (read+write) MSHR misses (Count)
system.cpu.dcache.demandMshrMisses::total       220657                       # number of demand (read+write) MSHR misses (Count)
system.cpu.dcache.overallMshrMisses::cpu.data       220657                       # number of overall MSHR misses (Count)
system.cpu.dcache.overallMshrMisses::total       220657                       # number of overall MSHR misses (Count)
system.cpu.dcache.demandMshrMissLatency::cpu.data  16303757491                       # number of demand (read+write) MSHR miss ticks (Tick)
system.cpu.dcache.demandMshrMissLatency::total  16303757491                       # number of demand (read+write) MSHR miss ticks (Tick)
system.cpu.dcache.overallMshrMissLatency::cpu.data  16303757491                       # number of overall MSHR miss ticks (Tick)
system.cpu.dcache.overallMshrMissLatency::total  16303757491                       # number of overall MSHR miss ticks (Tick)
system.cpu.dcache.demandMshrMissRate::cpu.data     0.000603                       # mshr miss ratio for demand accesses (Ratio)
system.cpu.dcache.demandMshrMissRate::total     0.000603                       # mshr miss ratio for demand accesses (Ratio)
system.cpu.dcache.overallMshrMissRate::cpu.data     0.000603                       # mshr miss ratio for overall accesses (Ratio)
system.cpu.dcache.overallMshrMissRate::total     0.000603                       # mshr miss ratio for overall accesses (Ratio)
system.cpu.dcache.demandAvgMshrMissLatency::cpu.data 73887.334148                       # average overall mshr miss latency ((Tick/Count))
system.cpu.dcache.demandAvgMshrMissLatency::total 73887.334148                       # average overall mshr miss latency ((Tick/Count))
system.cpu.dcache.overallAvgMshrMissLatency::cpu.data 73887.334148                       # average overall mshr miss latency ((Tick/Count))
system.cpu.dcache.overallAvgMshrMissLatency::total 73887.334148                       # average overall mshr miss latency ((Tick/Count))
system.cpu.dcache.replacements                 220142                       # number of replacements (Count)
system.cpu.dcache.LoadLockedReq.hits::cpu.data          436                       # number of LoadLockedReq hits (Count)
system.cpu.dcache.LoadLockedReq.hits::total          436                       # number of LoadLockedReq hits (Count)
system.cpu.dcache.LoadLockedReq.misses::cpu.data           18                       # number of LoadLockedReq misses (Count)
system.cpu.dcache.LoadLockedReq.misses::total           18                       # number of LoadLockedReq misses (Count)
system.cpu.dcache.LoadLockedReq.missLatency::cpu.data       646500                       # number of LoadLockedReq miss ticks (Tick)
system.cpu.dcache.LoadLockedReq.missLatency::total       646500                       # number of LoadLockedReq miss ticks (Tick)
system.cpu.dcache.LoadLockedReq.accesses::cpu.data          454                       # number of LoadLockedReq accesses(hits+misses) (Count)
system.cpu.dcache.LoadLockedReq.accesses::total          454                       # number of LoadLockedReq accesses(hits+misses) (Count)
system.cpu.dcache.LoadLockedReq.missRate::cpu.data     0.039648                       # miss rate for LoadLockedReq accesses (Ratio)
system.cpu.dcache.LoadLockedReq.missRate::total     0.039648                       # miss rate for LoadLockedReq accesses (Ratio)
system.cpu.dcache.LoadLockedReq.avgMissLatency::cpu.data 35916.666667                       # average LoadLockedReq miss latency ((Tick/Count))
system.cpu.dcache.LoadLockedReq.avgMissLatency::total 35916.666667                       # average LoadLockedReq miss latency ((Tick/Count))
system.cpu.dcache.LoadLockedReq.mshrHits::cpu.data           18                       # number of LoadLockedReq MSHR hits (Count)
system.cpu.dcache.LoadLockedReq.mshrHits::total           18                       # number of LoadLockedReq MSHR hits (Count)
system.cpu.dcache.ReadReq.hits::cpu.data    219967209                       # number of ReadReq hits (Count)
system.cpu.dcache.ReadReq.hits::total       219967209                       # number of ReadReq hits (Count)
system.cpu.dcache.ReadReq.misses::cpu.data       441936                       # number of ReadReq misses (Count)
system.cpu.dcache.ReadReq.misses::total        441936                       # number of ReadReq misses (Count)
system.cpu.dcache.ReadReq.missLatency::cpu.data  22850653500                       # number of ReadReq miss ticks (Tick)
system.cpu.dcache.ReadReq.missLatency::total  22850653500                       # number of ReadReq miss ticks (Tick)
system.cpu.dcache.ReadReq.accesses::cpu.data    220409145                       # number of ReadReq accesses(hits+misses) (Count)
system.cpu.dcache.ReadReq.accesses::total    220409145                       # number of ReadReq accesses(hits+misses) (Count)
system.cpu.dcache.ReadReq.missRate::cpu.data     0.002005                       # miss rate for ReadReq accesses (Ratio)
system.cpu.dcache.ReadReq.missRate::total     0.002005                       # miss rate for ReadReq accesses (Ratio)
system.cpu.dcache.ReadReq.avgMissLatency::cpu.data 51705.797898                       # average ReadReq miss latency ((Tick/Count))
system.cpu.dcache.ReadReq.avgMissLatency::total 51705.797898                       # average ReadReq miss latency ((Tick/Count))
system.cpu.dcache.ReadReq.mshrHits::cpu.data       341301                       # number of ReadReq MSHR hits (Count)
system.cpu.dcache.ReadReq.mshrHits::total       341301                       # number of ReadReq MSHR hits (Count)
system.cpu.dcache.ReadReq.mshrMisses::cpu.data       100635                       # number of ReadReq MSHR misses (Count)
system.cpu.dcache.ReadReq.mshrMisses::total       100635                       # number of ReadReq MSHR misses (Count)
system.cpu.dcache.ReadReq.mshrMissLatency::cpu.data   6065586000                       # number of ReadReq MSHR miss ticks (Tick)
system.cpu.dcache.ReadReq.mshrMissLatency::total   6065586000                       # number of ReadReq MSHR miss ticks (Tick)
system.cpu.dcache.ReadReq.mshrMissRate::cpu.data     0.000457                       # mshr miss rate for ReadReq accesses (Ratio)
system.cpu.dcache.ReadReq.mshrMissRate::total     0.000457                       # mshr miss rate for ReadReq accesses (Ratio)
system.cpu.dcache.ReadReq.avgMshrMissLatency::cpu.data 60273.125652                       # average ReadReq mshr miss latency ((Tick/Count))
system.cpu.dcache.ReadReq.avgMshrMissLatency::total 60273.125652                       # average ReadReq mshr miss latency ((Tick/Count))
system.cpu.dcache.StoreCondReq.hits::cpu.data          427                       # number of StoreCondReq hits (Count)
system.cpu.dcache.StoreCondReq.hits::total          427                       # number of StoreCondReq hits (Count)
system.cpu.dcache.StoreCondReq.accesses::cpu.data          427                       # number of StoreCondReq accesses(hits+misses) (Count)
system.cpu.dcache.StoreCondReq.accesses::total          427                       # number of StoreCondReq accesses(hits+misses) (Count)
system.cpu.dcache.WriteReq.hits::cpu.data    144460274                       # number of WriteReq hits (Count)
system.cpu.dcache.WriteReq.hits::total      144460274                       # number of WriteReq hits (Count)
system.cpu.dcache.WriteReq.misses::cpu.data      1159470                       # number of WriteReq misses (Count)
system.cpu.dcache.WriteReq.misses::total      1159470                       # number of WriteReq misses (Count)
system.cpu.dcache.WriteReq.missLatency::cpu.data  98075048472                       # number of WriteReq miss ticks (Tick)
system.cpu.dcache.WriteReq.missLatency::total  98075048472                       # number of WriteReq miss ticks (Tick)
system.cpu.dcache.WriteReq.accesses::cpu.data    145619744                       # number of WriteReq accesses(hits+misses) (Count)
system.cpu.dcache.WriteReq.accesses::total    145619744                       # number of WriteReq accesses(hits+misses) (Count)
system.cpu.dcache.WriteReq.missRate::cpu.data     0.007962                       # miss rate for WriteReq accesses (Ratio)
system.cpu.dcache.WriteReq.missRate::total     0.007962                       # miss rate for WriteReq accesses (Ratio)
system.cpu.dcache.WriteReq.avgMissLatency::cpu.data 84586.102678                       # average WriteReq miss latency ((Tick/Count))
system.cpu.dcache.WriteReq.avgMissLatency::total 84586.102678                       # average WriteReq miss latency ((Tick/Count))
system.cpu.dcache.WriteReq.mshrHits::cpu.data      1039448                       # number of WriteReq MSHR hits (Count)
system.cpu.dcache.WriteReq.mshrHits::total      1039448                       # number of WriteReq MSHR hits (Count)
system.cpu.dcache.WriteReq.mshrMisses::cpu.data       120022                       # number of WriteReq MSHR misses (Count)
system.cpu.dcache.WriteReq.mshrMisses::total       120022                       # number of WriteReq MSHR misses (Count)
system.cpu.dcache.WriteReq.mshrMissLatency::cpu.data  10238171491                       # number of WriteReq MSHR miss ticks (Tick)
system.cpu.dcache.WriteReq.mshrMissLatency::total  10238171491                       # number of WriteReq MSHR miss ticks (Tick)
system.cpu.dcache.WriteReq.mshrMissRate::cpu.data     0.000824                       # mshr miss rate for WriteReq accesses (Ratio)
system.cpu.dcache.WriteReq.mshrMissRate::total     0.000824                       # mshr miss rate for WriteReq accesses (Ratio)
system.cpu.dcache.WriteReq.avgMshrMissLatency::cpu.data 85302.456975                       # average WriteReq mshr miss latency ((Tick/Count))
system.cpu.dcache.WriteReq.avgMshrMissLatency::total 85302.456975                       # average WriteReq mshr miss latency ((Tick/Count))
system.cpu.dcache.power_state.pwrStateResidencyTicks::UNDEFINED 231154642500                       # Cumulative time (in ticks) in various power states (Tick)
system.cpu.dcache.tags.tagsInUse           511.813072                       # Average ticks per tags in use ((Tick/Count))
system.cpu.dcache.tags.totalRefs            364649014                       # Total number of references to valid blocks. (Count)
system.cpu.dcache.tags.sampledRefs             220654                       # Sample count of references to valid blocks. (Count)
system.cpu.dcache.tags.avgRefs            1652.582840                       # Average number of references to valid blocks. ((Count/Count))
system.cpu.dcache.tags.warmupTick              148500                       # The tick when the warmup percentage was hit. (Tick)
system.cpu.dcache.tags.occupancies::cpu.data   511.813072                       # Average occupied blocks per tick, per requestor ((Count/Tick))
system.cpu.dcache.tags.avgOccs::cpu.data     0.999635                       # Average percentage of cache occupancy ((Ratio/Tick))
system.cpu.dcache.tags.avgOccs::total        0.999635                       # Average percentage of cache occupancy ((Ratio/Tick))
system.cpu.dcache.tags.occupanciesTaskId::1024          512                       # Occupied blocks per task id (Count)
system.cpu.dcache.tags.ageTaskId_1024::0            3                       # Occupied blocks per task id, per block age (Count)
system.cpu.dcache.tags.ageTaskId_1024::1           22                       # Occupied blocks per task id, per block age (Count)
system.cpu.dcache.tags.ageTaskId_1024::2          211                       # Occupied blocks per task id, per block age (Count)
system.cpu.dcache.tags.ageTaskId_1024::3          150                       # Occupied blocks per task id, per block age (Count)
system.cpu.dcache.tags.ageTaskId_1024::4          126                       # Occupied blocks per task id, per block age (Count)
system.cpu.dcache.tags.ratioOccsTaskId::1024            1                       # Ratio of occupied blocks and all blocks, per task id (Ratio)
system.cpu.dcache.tags.tagAccesses          732280194                       # Number of tag accesses (Count)
system.cpu.dcache.tags.dataAccesses         732280194                       # Number of data accesses (Count)
system.cpu.dcache.tags.power_state.pwrStateResidencyTicks::UNDEFINED 231154642500                       # Cumulative time (in ticks) in various power states (Tick)
system.cpu.decode.idleCycles                149639970                       # Number of cycles decode is idle (Cycle)
system.cpu.decode.blockedCycles              89374968                       # Number of cycles decode is blocked (Cycle)
system.cpu.decode.runCycles                 194263111                       # Number of cycles decode is running (Cycle)
system.cpu.decode.unblockCycles              25989617                       # Number of cycles decode is unblocking (Cycle)
system.cpu.decode.squashCycles                2941088                       # Number of cycles decode is squashing (Cycle)
system.cpu.decode.branchResolved             66275119                       # Number of times decode resolved a branch (Count)
system.cpu.decode.branchMispred               2506188                       # Number of times decode detected a branch misprediction (Count)
system.cpu.decode.decodedInsts             1270978632                       # Number of instructions handled by decode (Count)
system.cpu.decode.squashedInsts                  5472                       # Number of squashed instructions handled by decode (Count)
system.cpu.fetch.icacheStallCycles          180978006                       # Number of cycles fetch is stalled on an Icache miss (Cycle)
system.cpu.fetch.insts                     1200115340                       # Number of instructions fetch has processed (Count)
system.cpu.fetch.branches                   231963963                       # Number of branches that fetch encountered (Count)
system.cpu.fetch.predictedBranches           93433546                       # Number of branches that fetch has predicted taken (Count)
system.cpu.fetch.cycles                     275783641                       # Number of cycles fetch has run and was not squashing or blocked (Cycle)
system.cpu.fetch.squashCycles                10893284                       # Number of cycles fetch has spent squashing (Cycle)
system.cpu.fetch.miscStallCycles                  118                       # Number of cycles fetch has spent waiting on interrupts, or bad addresses, or out of MSHRs (Cycle)
system.cpu.fetch.pendingTrapStallCycles           326                       # Number of stall cycles due to pending traps (Cycle)
system.cpu.fetch.icacheWaitRetryStallCycles           21                       # Number of stall cycles due to full MSHR (Cycle)
system.cpu.fetch.cacheLines                 177181022                       # Number of cache lines fetched (Count)
system.cpu.fetch.icacheSquashes               1835084                       # Number of outstanding Icache misses that were squashed (Count)
system.cpu.fetch.nisnDist::samples          462208754                       # Number of instructions fetched each cycle (Total) (Count)
system.cpu.fetch.nisnDist::mean              2.936193                       # Number of instructions fetched each cycle (Total) (Count)
system.cpu.fetch.nisnDist::stdev             3.381899                       # Number of instructions fetched each cycle (Total) (Count)
system.cpu.fetch.nisnDist::underflows               0      0.00%      0.00% # Number of instructions fetched each cycle (Total) (Count)
system.cpu.fetch.nisnDist::0                215627378     46.65%     46.65% # Number of instructions fetched each cycle (Total) (Count)
system.cpu.fetch.nisnDist::1                 29423474      6.37%     53.02% # Number of instructions fetched each cycle (Total) (Count)
system.cpu.fetch.nisnDist::2                 29978617      6.49%     59.50% # Number of instructions fetched each cycle (Total) (Count)
system.cpu.fetch.nisnDist::3                  6714408      1.45%     60.96% # Number of instructions fetched each cycle (Total) (Count)
system.cpu.fetch.nisnDist::4                 25593584      5.54%     66.49% # Number of instructions fetched each cycle (Total) (Count)
system.cpu.fetch.nisnDist::5                 20556243      4.45%     70.94% # Number of instructions fetched each cycle (Total) (Count)
system.cpu.fetch.nisnDist::6                 11425635      2.47%     73.41% # Number of instructions fetched each cycle (Total) (Count)
system.cpu.fetch.nisnDist::7                  9214476      1.99%     75.41% # Number of instructions fetched each cycle (Total) (Count)
system.cpu.fetch.nisnDist::8                113674939     24.59%    100.00% # Number of instructions fetched each cycle (Total) (Count)
system.cpu.fetch.nisnDist::overflows                0      0.00%    100.00% # Number of instructions fetched each cycle (Total) (Count)
system.cpu.fetch.nisnDist::min_value                0                       # Number of instructions fetched each cycle (Total) (Count)
system.cpu.fetch.nisnDist::max_value                8                       # Number of instructions fetched each cycle (Total) (Count)
system.cpu.fetch.nisnDist::total            462208754                       # Number of instructions fetched each cycle (Total) (Count)
system.cpu.fetch.branchRate                  0.501751                       # Number of branch fetches per cycle (Ratio)
system.cpu.fetch.rate                        2.595914                       # Number of inst fetches per cycle ((Count/Cycle))
system.cpu.icache.demandHits::cpu.inst      177170047                       # number of demand (read+write) hits (Count)
system.cpu.icache.demandHits::total         177170047                       # number of demand (read+write) hits (Count)
system.cpu.icache.overallHits::cpu.inst     177170047                       # number of overall hits (Count)
system.cpu.icache.overallHits::total        177170047                       # number of overall hits (Count)
system.cpu.icache.demandMisses::cpu.inst        10974                       # number of demand (read+write) misses (Count)
system.cpu.icache.demandMisses::total           10974                       # number of demand (read+write) misses (Count)
system.cpu.icache.overallMisses::cpu.inst        10974                       # number of overall misses (Count)
system.cpu.icache.overallMisses::total          10974                       # number of overall misses (Count)
system.cpu.icache.demandMissLatency::cpu.inst    238670000                       # number of demand (read+write) miss ticks (Tick)
system.cpu.icache.demandMissLatency::total    238670000                       # number of demand (read+write) miss ticks (Tick)
system.cpu.icache.overallMissLatency::cpu.inst    238670000                       # number of overall miss ticks (Tick)
system.cpu.icache.overallMissLatency::total    238670000                       # number of overall miss ticks (Tick)
system.cpu.icache.demandAccesses::cpu.inst    177181021                       # number of demand (read+write) accesses (Count)
system.cpu.icache.demandAccesses::total     177181021                       # number of demand (read+write) accesses (Count)
system.cpu.icache.overallAccesses::cpu.inst    177181021                       # number of overall (read+write) accesses (Count)
system.cpu.icache.overallAccesses::total    177181021                       # number of overall (read+write) accesses (Count)
system.cpu.icache.demandMissRate::cpu.inst     0.000062                       # miss rate for demand accesses (Ratio)
system.cpu.icache.demandMissRate::total      0.000062                       # miss rate for demand accesses (Ratio)
system.cpu.icache.overallMissRate::cpu.inst     0.000062                       # miss rate for overall accesses (Ratio)
system.cpu.icache.overallMissRate::total     0.000062                       # miss rate for overall accesses (Ratio)
system.cpu.icache.demandAvgMissLatency::cpu.inst 21748.678695                       # average overall miss latency in ticks ((Tick/Count))
system.cpu.icache.demandAvgMissLatency::total 21748.678695                       # average overall miss latency in ticks ((Tick/Count))
system.cpu.icache.overallAvgMissLatency::cpu.inst 21748.678695                       # average overall miss latency ((Tick/Count))
system.cpu.icache.overallAvgMissLatency::total 21748.678695                       # average overall miss latency ((Tick/Count))
system.cpu.icache.blockedCycles::no_mshrs         1130                       # number of cycles access was blocked (Cycle)
system.cpu.icache.blockedCycles::no_targets            0                       # number of cycles access was blocked (Cycle)
system.cpu.icache.blockedCauses::no_mshrs           16                       # number of times access was blocked (Count)
system.cpu.icache.blockedCauses::no_targets            0                       # number of times access was blocked (Count)
system.cpu.icache.avgBlocked::no_mshrs      70.625000                       # average number of cycles each access was blocked ((Cycle/Count))
system.cpu.icache.avgBlocked::no_targets          nan                       # average number of cycles each access was blocked ((Cycle/Count))
system.cpu.icache.demandMshrHits::cpu.inst         1529                       # number of demand (read+write) MSHR hits (Count)
system.cpu.icache.demandMshrHits::total          1529                       # number of demand (read+write) MSHR hits (Count)
system.cpu.icache.overallMshrHits::cpu.inst         1529                       # number of overall MSHR hits (Count)
system.cpu.icache.overallMshrHits::total         1529                       # number of overall MSHR hits (Count)
system.cpu.icache.demandMshrMisses::cpu.inst         9445                       # number of demand (read+write) MSHR misses (Count)
system.cpu.icache.demandMshrMisses::total         9445                       # number of demand (read+write) MSHR misses (Count)
system.cpu.icache.overallMshrMisses::cpu.inst         9445                       # number of overall MSHR misses (Count)
system.cpu.icache.overallMshrMisses::total         9445                       # number of overall MSHR misses (Count)
system.cpu.icache.demandMshrMissLatency::cpu.inst    195235500                       # number of demand (read+write) MSHR miss ticks (Tick)
system.cpu.icache.demandMshrMissLatency::total    195235500                       # number of demand (read+write) MSHR miss ticks (Tick)
system.cpu.icache.overallMshrMissLatency::cpu.inst    195235500                       # number of overall MSHR miss ticks (Tick)
system.cpu.icache.overallMshrMissLatency::total    195235500                       # number of overall MSHR miss ticks (Tick)
system.cpu.icache.demandMshrMissRate::cpu.inst     0.000053                       # mshr miss ratio for demand accesses (Ratio)
system.cpu.icache.demandMshrMissRate::total     0.000053                       # mshr miss ratio for demand accesses (Ratio)
system.cpu.icache.overallMshrMissRate::cpu.inst     0.000053                       # mshr miss ratio for overall accesses (Ratio)
system.cpu.icache.overallMshrMissRate::total     0.000053                       # mshr miss ratio for overall accesses (Ratio)
system.cpu.icache.demandAvgMshrMissLatency::cpu.inst 20670.778190                       # average overall mshr miss latency ((Tick/Count))
system.cpu.icache.demandAvgMshrMissLatency::total 20670.778190                       # average overall mshr miss latency ((Tick/Count))
system.cpu.icache.overallAvgMshrMissLatency::cpu.inst 20670.778190                       # average overall mshr miss latency ((Tick/Count))
system.cpu.icache.overallAvgMshrMissLatency::total 20670.778190                       # average overall mshr miss latency ((Tick/Count))
system.cpu.icache.replacements                   8934                       # number of replacements (Count)
system.cpu.icache.ReadReq.hits::cpu.inst    177170047                       # number of ReadReq hits (Count)
system.cpu.icache.ReadReq.hits::total       177170047                       # number of ReadReq hits (Count)
system.cpu.icache.ReadReq.misses::cpu.inst        10974                       # number of ReadReq misses (Count)
system.cpu.icache.ReadReq.misses::total         10974                       # number of ReadReq misses (Count)
system.cpu.icache.ReadReq.missLatency::cpu.inst    238670000                       # number of ReadReq miss ticks (Tick)
system.cpu.icache.ReadReq.missLatency::total    238670000                       # number of ReadReq miss ticks (Tick)
system.cpu.icache.ReadReq.accesses::cpu.inst    177181021                       # number of ReadReq accesses(hits+misses) (Count)
system.cpu.icache.ReadReq.accesses::total    177181021                       # number of ReadReq accesses(hits+misses) (Count)
system.cpu.icache.ReadReq.missRate::cpu.inst     0.000062                       # miss rate for ReadReq accesses (Ratio)
system.cpu.icache.ReadReq.missRate::total     0.000062                       # miss rate for ReadReq accesses (Ratio)
system.cpu.icache.ReadReq.avgMissLatency::cpu.inst 21748.678695                       # average ReadReq miss latency ((Tick/Count))
system.cpu.icache.ReadReq.avgMissLatency::total 21748.678695                       # average ReadReq miss latency ((Tick/Count))
system.cpu.icache.ReadReq.mshrHits::cpu.inst         1529                       # number of ReadReq MSHR hits (Count)
system.cpu.icache.ReadReq.mshrHits::total         1529                       # number of ReadReq MSHR hits (Count)
system.cpu.icache.ReadReq.mshrMisses::cpu.inst         9445                       # number of ReadReq MSHR misses (Count)
system.cpu.icache.ReadReq.mshrMisses::total         9445                       # number of ReadReq MSHR misses (Count)
system.cpu.icache.ReadReq.mshrMissLatency::cpu.inst    195235500                       # number of ReadReq MSHR miss ticks (Tick)
system.cpu.icache.ReadReq.mshrMissLatency::total    195235500                       # number of ReadReq MSHR miss ticks (Tick)
system.cpu.icache.ReadReq.mshrMissRate::cpu.inst     0.000053                       # mshr miss rate for ReadReq accesses (Ratio)
system.cpu.icache.ReadReq.mshrMissRate::total     0.000053                       # mshr miss rate for ReadReq accesses (Ratio)
system.cpu.icache.ReadReq.avgMshrMissLatency::cpu.inst 20670.778190                       # average ReadReq mshr miss latency ((Tick/Count))
system.cpu.icache.ReadReq.avgMshrMissLatency::total 20670.778190                       # average ReadReq mshr miss latency ((Tick/Count))
system.cpu.icache.power_state.pwrStateResidencyTicks::UNDEFINED 231154642500                       # Cumulative time (in ticks) in various power states (Tick)
system.cpu.icache.tags.tagsInUse           508.638584                       # Average ticks per tags in use ((Tick/Count))
system.cpu.icache.tags.totalRefs            177179492                       # Total number of references to valid blocks. (Count)
system.cpu.icache.tags.sampledRefs               9445                       # Sample count of references to valid blocks. (Count)
system.cpu.icache.tags.avgRefs           18759.078031                       # Average number of references to valid blocks. ((Count/Count))
system.cpu.icache.tags.warmupTick               81500                       # The tick when the warmup percentage was hit. (Tick)
system.cpu.icache.tags.occupancies::cpu.inst   508.638584                       # Average occupied blocks per tick, per requestor ((Count/Tick))
system.cpu.icache.tags.avgOccs::cpu.inst     0.993435                       # Average percentage of cache occupancy ((Ratio/Tick))
system.cpu.icache.tags.avgOccs::total        0.993435                       # Average percentage of cache occupancy ((Ratio/Tick))
system.cpu.icache.tags.occupanciesTaskId::1024          509                       # Occupied blocks per task id (Count)
system.cpu.icache.tags.ageTaskId_1024::2            6                       # Occupied blocks per task id, per block age (Count)
system.cpu.icache.tags.ageTaskId_1024::3            2                       # Occupied blocks per task id, per block age (Count)
system.cpu.icache.tags.ageTaskId_1024::4          501                       # Occupied blocks per task id, per block age (Count)
system.cpu.icache.tags.ratioOccsTaskId::1024     0.994141                       # Ratio of occupied blocks and all blocks, per task id (Ratio)
system.cpu.icache.tags.tagAccesses          354371487                       # Number of tag accesses (Count)
system.cpu.icache.tags.dataAccesses         354371487                       # Number of data accesses (Count)
system.cpu.icache.tags.power_state.pwrStateResidencyTicks::UNDEFINED 231154642500                       # Cumulative time (in ticks) in various power states (Tick)
system.cpu.iew.idleCycles                           0                       # Number of cycles IEW is idle (Cycle)
system.cpu.iew.squashCycles                   2941088                       # Number of cycles IEW is squashing (Cycle)
system.cpu.iew.blockCycles                   11799220                       # Number of cycles IEW is blocking (Cycle)
system.cpu.iew.unblockCycles                   118340                       # Number of cycles IEW is unblocking (Cycle)
system.cpu.iew.dispatchedInsts             1235269961                       # Number of instructions dispatched to IQ (Count)
system.cpu.iew.dispSquashedInsts                 4778                       # Number of squashed instructions skipped by dispatch (Count)
system.cpu.iew.dispLoadInsts                268235149                       # Number of dispatched load instructions (Count)
system.cpu.iew.dispStoreInsts               154930383                       # Number of dispatched store instructions (Count)
system.cpu.iew.dispNonSpecInsts                  1504                       # Number of dispatched non-speculative instructions (Count)
system.cpu.iew.iqFullEvents                     10901                       # Number of times the IQ has become full, causing a stall (Count)
system.cpu.iew.lsqFullEvents                   107181                       # Number of times the LSQ has become full, causing a stall (Count)
system.cpu.iew.memOrderViolationEvents          19788                       # Number of memory order violations (Count)
system.cpu.iew.predictedTakenIncorrect           9922                       # Number of branches that were predicted taken incorrectly (Count)
system.cpu.iew.predictedNotTakenIncorrect      4166482                       # Number of branches that were predicted not taken incorrectly (Count)
system.cpu.iew.branchMispredicts              4176404                       # Number of branch mispredicts detected at execute (Count)
system.cpu.iew.instsToCommit               1168388092                       # Cumulative count of insts sent to commit (Count)
system.cpu.iew.writebackCount              1168366287                       # Cumulative count of insts written-back (Count)
system.cpu.iew.producerInst                 708898497                       # Number of instructions producing a value (Count)
system.cpu.iew.consumerInst                1238039481                       # Number of instructions consuming a value (Count)
system.cpu.iew.wbRate                        2.527239                       # Insts written-back per cycle ((Count/Cycle))
system.cpu.iew.wbFanout                      0.572598                       # Average fanout of values written-back ((Count/Count))
system.cpu.lsq0.forwLoads                    34059559                       # Number of loads that had data forwarded from stores (Count)
system.cpu.lsq0.squashedLoads                19252032                       # Number of loads squashed (Count)
system.cpu.lsq0.ignoredResponses              1247867                       # Number of memory responses ignored because the instruction is squashed (Count)
system.cpu.lsq0.memOrderViolation               19788                       # Number of memory ordering violations (Count)
system.cpu.lsq0.squashedStores                6384468                       # Number of stores squashed (Count)
system.cpu.lsq0.rescheduledLoads             20292746                       # Number of loads that were rescheduled (Count)
system.cpu.lsq0.blockedByCache                     80                       # Number of times an access to memory failed due to the cache being blocked (Count)
system.cpu.lsq0.loadToUse::samples          248983107                       # Distribution of cycle latency between the first time a load is issued and its completion (Unspecified)
system.cpu.lsq0.loadToUse::mean              3.884181                       # Distribution of cycle latency between the first time a load is issued and its completion (Unspecified)
system.cpu.lsq0.loadToUse::stdev             6.579695                       # Distribution of cycle latency between the first time a load is issued and its completion (Unspecified)
system.cpu.lsq0.loadToUse::0-9              240321568     96.52%     96.52% # Distribution of cycle latency between the first time a load is issued and its completion (Unspecified)
system.cpu.lsq0.loadToUse::10-19              5991916      2.41%     98.93% # Distribution of cycle latency between the first time a load is issued and its completion (Unspecified)
system.cpu.lsq0.loadToUse::20-29              1908810      0.77%     99.69% # Distribution of cycle latency between the first time a load is issued and its completion (Unspecified)
system.cpu.lsq0.loadToUse::30-39               437937      0.18%     99.87% # Distribution of cycle latency between the first time a load is issued and its completion (Unspecified)
system.cpu.lsq0.loadToUse::40-49                24380      0.01%     99.88% # Distribution of cycle latency between the first time a load is issued and its completion (Unspecified)
system.cpu.lsq0.loadToUse::50-59                10838      0.00%     99.88% # Distribution of cycle latency between the first time a load is issued and its completion (Unspecified)
system.cpu.lsq0.loadToUse::60-69                28362      0.01%     99.90% # Distribution of cycle latency between the first time a load is issued and its completion (Unspecified)
system.cpu.lsq0.loadToUse::70-79                53384      0.02%     99.92% # Distribution of cycle latency between the first time a load is issued and its completion (Unspecified)
system.cpu.lsq0.loadToUse::80-89                18200      0.01%     99.92% # Distribution of cycle latency between the first time a load is issued and its completion (Unspecified)
system.cpu.lsq0.loadToUse::90-99                 8162      0.00%     99.93% # Distribution of cycle latency between the first time a load is issued and its completion (Unspecified)
system.cpu.lsq0.loadToUse::100-109               4730      0.00%     99.93% # Distribution of cycle latency between the first time a load is issued and its completion (Unspecified)
system.cpu.lsq0.loadToUse::110-119               2820      0.00%     99.93% # Distribution of cycle latency between the first time a load is issued and its completion (Unspecified)
system.cpu.lsq0.loadToUse::120-129              25918      0.01%     99.94% # Distribution of cycle latency between the first time a load is issued and its completion (Unspecified)
system.cpu.lsq0.loadToUse::130-139              39979      0.02%     99.96% # Distribution of cycle latency between the first time a load is issued and its completion (Unspecified)
system.cpu.lsq0.loadToUse::140-149               1817      0.00%     99.96% # Distribution of cycle latency between the first time a load is issued and its completion (Unspecified)
system.cpu.lsq0.loadToUse::150-159               3152      0.00%     99.96% # Distribution of cycle latency between the first time a load is issued and its completion (Unspecified)
system.cpu.lsq0.loadToUse::160-169               1976      0.00%     99.96% # Distribution of cycle latency between the first time a load is issued and its completion (Unspecified)
system.cpu.lsq0.loadToUse::170-179               1109      0.00%     99.96% # Distribution of cycle latency between the first time a load is issued and its completion (Unspecified)
system.cpu.lsq0.loadToUse::180-189              39079      0.02%     99.98% # Distribution of cycle latency between the first time a load is issued and its completion (Unspecified)
system.cpu.lsq0.loadToUse::190-199              31334      0.01%     99.99% # Distribution of cycle latency between the first time a load is issued and its completion (Unspecified)
[...]
system.mem_ctrl.dram.perBankRdBursts::7          5665                       # Per bank write bursts (Count)
system.mem_ctrl.dram.perBankRdBursts::8          5725                       # Per bank write bursts (Count)
system.mem_ctrl.dram.perBankRdBursts::9          5698                       # Per bank write bursts (Count)
system.mem_ctrl.dram.perBankRdBursts::10         5721                       # Per bank write bursts (Count)
system.mem_ctrl.dram.perBankRdBursts::11         5662                       # Per bank write bursts (Count)
system.mem_ctrl.dram.perBankRdBursts::12         5649                       # Per bank write bursts (Count)
system.mem_ctrl.dram.perBankRdBursts::13         5644                       # Per bank write bursts (Count)
system.mem_ctrl.dram.perBankRdBursts::14         5654                       # Per bank write bursts (Count)
system.mem_ctrl.dram.perBankRdBursts::15         5702                       # Per bank write bursts (Count)
system.mem_ctrl.dram.perBankRdBursts::16         5663                       # Per bank write bursts (Count)
system.mem_ctrl.dram.perBankRdBursts::17         5665                       # Per bank write bursts (Count)
system.mem_ctrl.dram.perBankRdBursts::18         5704                       # Per bank write bursts (Count)
system.mem_ctrl.dram.perBankRdBursts::19         5646                       # Per bank write bursts (Count)
system.mem_ctrl.dram.perBankRdBursts::20         5650                       # Per bank write bursts (Count)
system.mem_ctrl.dram.perBankRdBursts::21         5700                       # Per bank write bursts (Count)
system.mem_ctrl.dram.perBankRdBursts::22         5664                       # Per bank write bursts (Count)
system.mem_ctrl.dram.perBankRdBursts::23         5664                       # Per bank write bursts (Count)
system.mem_ctrl.dram.perBankRdBursts::24         5636                       # Per bank write bursts (Count)
system.mem_ctrl.dram.perBankRdBursts::25         5711                       # Per bank write bursts (Count)
system.mem_ctrl.dram.perBankRdBursts::26         5802                       # Per bank write bursts (Count)
system.mem_ctrl.dram.perBankRdBursts::27         5660                       # Per bank write bursts (Count)
system.mem_ctrl.dram.perBankRdBursts::28         5615                       # Per bank write bursts (Count)
system.mem_ctrl.dram.perBankRdBursts::29         5593                       # Per bank write bursts (Count)
system.mem_ctrl.dram.perBankRdBursts::30         5686                       # Per bank write bursts (Count)
system.mem_ctrl.dram.perBankRdBursts::31         5628                       # Per bank write bursts (Count)
system.mem_ctrl.dram.perBankWrBursts::0          3547                       # Per bank write bursts (Count)
system.mem_ctrl.dram.perBankWrBursts::1          3489                       # Per bank write bursts (Count)
system.mem_ctrl.dram.perBankWrBursts::2          3469                       # Per bank write bursts (Count)
system.mem_ctrl.dram.perBankWrBursts::3          3460                       # Per bank write bursts (Count)
system.mem_ctrl.dram.perBankWrBursts::4          3458                       # Per bank write bursts (Count)
system.mem_ctrl.dram.perBankWrBursts::5          3584                       # Per bank write bursts (Count)
system.mem_ctrl.dram.perBankWrBursts::6          3585                       # Per bank write bursts (Count)
system.mem_ctrl.dram.perBankWrBursts::7          3585                       # Per bank write bursts (Count)
system.mem_ctrl.dram.perBankWrBursts::8          3584                       # Per bank write bursts (Count)
system.mem_ctrl.dram.perBankWrBursts::9          3584                       # Per bank write bursts (Count)
system.mem_ctrl.dram.perBankWrBursts::10         3584                       # Per bank write bursts (Count)
system.mem_ctrl.dram.perBankWrBursts::11         3584                       # Per bank write bursts (Count)
system.mem_ctrl.dram.perBankWrBursts::12         3584                       # Per bank write bursts (Count)
system.mem_ctrl.dram.perBankWrBursts::13         3584                       # Per bank write bursts (Count)
system.mem_ctrl.dram.perBankWrBursts::14         3584                       # Per bank write bursts (Count)
system.mem_ctrl.dram.perBankWrBursts::15         3584                       # Per bank write bursts (Count)
system.mem_ctrl.dram.perBankWrBursts::16         3584                       # Per bank write bursts (Count)
system.mem_ctrl.dram.perBankWrBursts::17         3584                       # Per bank write bursts (Count)
system.mem_ctrl.dram.perBankWrBursts::18         3584                       # Per bank write bursts (Count)
system.mem_ctrl.dram.perBankWrBursts::19         3581                       # Per bank write bursts (Count)
system.mem_ctrl.dram.perBankWrBursts::20         3584                       # Per bank write bursts (Count)
system.mem_ctrl.dram.perBankWrBursts::21         3584                       # Per bank write bursts (Count)
system.mem_ctrl.dram.perBankWrBursts::22         3584                       # Per bank write bursts (Count)
system.mem_ctrl.dram.perBankWrBursts::23         3584                       # Per bank write bursts (Count)
system.mem_ctrl.dram.perBankWrBursts::24         3584                       # Per bank write bursts (Count)
system.mem_ctrl.dram.perBankWrBursts::25         3584                       # Per bank write bursts (Count)
system.mem_ctrl.dram.perBankWrBursts::26         3625                       # Per bank write bursts (Count)
system.mem_ctrl.dram.perBankWrBursts::27         3586                       # Per bank write bursts (Count)
system.mem_ctrl.dram.perBankWrBursts::28         3499                       # Per bank write bursts (Count)
system.mem_ctrl.dram.perBankWrBursts::29         3497                       # Per bank write bursts (Count)
system.mem_ctrl.dram.perBankWrBursts::30         3554                       # Per bank write bursts (Count)
system.mem_ctrl.dram.perBankWrBursts::31         3470                       # Per bank write bursts (Count)
system.mem_ctrl.dram.totQLat               4148478960                       # Total ticks spent queuing (Tick)
system.mem_ctrl.dram.totBusLat              606677232                       # Total ticks spent in databus transfers (Tick)
system.mem_ctrl.dram.totMemAccLat          7333352352                       # Total ticks spent from burst creation until serviced by the DRAM (Tick)
system.mem_ctrl.dram.avgQLat                 22784.33                       # Average queueing delay per DRAM burst ((Tick/Count))
system.mem_ctrl.dram.avgBusLat                3332.00                       # Average bus latency per DRAM burst ((Tick/Count))
system.mem_ctrl.dram.avgMemAccLat            40276.33                       # Average memory access latency per DRAM burst ((Tick/Count))
system.mem_ctrl.dram.readRowHits               120362                       # Number of row buffer hits during reads (Count)
system.mem_ctrl.dram.writeRowHits              102011                       # Number of row buffer hits during writes (Count)
system.mem_ctrl.dram.readRowHitRate             66.11                       # Row buffer hit rate for reads (Ratio)
system.mem_ctrl.dram.writeRowHitRate            89.55                       # Row buffer hit rate for writes (Ratio)
system.mem_ctrl.dram.bytesPerActivate::samples        73619                       # Bytes accessed per row activation (Byte)
system.mem_ctrl.dram.bytesPerActivate::mean   257.317921                       # Bytes accessed per row activation (Byte)
system.mem_ctrl.dram.bytesPerActivate::gmean   167.699203                       # Bytes accessed per row activation (Byte)
system.mem_ctrl.dram.bytesPerActivate::stdev   293.686825                       # Bytes accessed per row activation (Byte)
system.mem_ctrl.dram.bytesPerActivate::0-127        17512     23.79%     23.79% # Bytes accessed per row activation (Byte)
system.mem_ctrl.dram.bytesPerActivate::128-255        42158     57.27%     81.05% # Bytes accessed per row activation (Byte)
system.mem_ctrl.dram.bytesPerActivate::256-383         1026      1.39%     82.45% # Bytes accessed per row activation (Byte)
system.mem_ctrl.dram.bytesPerActivate::384-511         1601      2.17%     84.62% # Bytes accessed per row activation (Byte)
system.mem_ctrl.dram.bytesPerActivate::512-639         1671      2.27%     86.89% # Bytes accessed per row activation (Byte)
system.mem_ctrl.dram.bytesPerActivate::640-767         1016      1.38%     88.27% # Bytes accessed per row activation (Byte)
system.mem_ctrl.dram.bytesPerActivate::768-895          417      0.57%     88.84% # Bytes accessed per row activation (Byte)
system.mem_ctrl.dram.bytesPerActivate::896-1023          910      1.24%     90.07% # Bytes accessed per row activation (Byte)
system.mem_ctrl.dram.bytesPerActivate::1024-1151         7308      9.93%    100.00% # Bytes accessed per row activation (Byte)
system.mem_ctrl.dram.bytesPerActivate::total        73619                       # Bytes accessed per row activation (Byte)
system.mem_ctrl.dram.bytesRead               11652864                       # Total bytes read (Byte)
system.mem_ctrl.dram.bytesWritten             7290688                       # Total bytes written (Byte)
system.mem_ctrl.dram.avgRdBW                50.411551                       # Average DRAM read bandwidth in MiBytes/s ((Byte/Second))
system.mem_ctrl.dram.avgWrBW                31.540305                       # Average DRAM write bandwidth in MiBytes/s ((Byte/Second))
system.mem_ctrl.dram.peakBW                  19207.00                       # Theoretical peak bandwidth in MiByte/s ((Byte/Second))
system.mem_ctrl.dram.busUtil                     0.43                       # Data bus utilization in percentage (Ratio)
system.mem_ctrl.dram.busUtilRead                 0.26                       # Data bus utilization in percentage for reads (Ratio)
system.mem_ctrl.dram.busUtilWrite                0.16                       # Data bus utilization in percentage for writes (Ratio)
system.mem_ctrl.dram.pageHitRate                75.13                       # Row buffer hit rate, read and write combined (Ratio)
system.mem_ctrl.dram.power_state.pwrStateResidencyTicks::UNDEFINED 231154642500                       # Cumulative time (in ticks) in various power states (Tick)
system.mem_ctrl.dram.rank0.actEnergy     115381348.992007                       # Energy for activate commands per rank (pJ) (Joule)
system.mem_ctrl.dram.rank0.preEnergy     153398024.236775                       # Energy for precharge commands per rank (pJ) (Joule)
system.mem_ctrl.dram.rank0.readEnergy    384411086.035159                       # Energy for read commands per rank (pJ) (Joule)
system.mem_ctrl.dram.rank0.writeEnergy   213666739.104002                       # Energy for write commands per rank (pJ) (Joule)
system.mem_ctrl.dram.rank0.refreshEnergy 41130476373.936211                       # Energy for refresh commands per rank (pJ) (Joule)
system.mem_ctrl.dram.rank0.actBackEnergy 81821391910.562424                       # Energy for active background per rank (pJ) (Joule)
system.mem_ctrl.dram.rank0.preBackEnergy 88029336702.981766                       # Energy for precharge background per rank (pJ) (Joule)
system.mem_ctrl.dram.rank0.actPowerDownEnergy            0                       # Energy for active power-down per rank (pJ) (Joule)
system.mem_ctrl.dram.rank0.prePowerDownEnergy            0                       # Energy for precharge power-down per rank (pJ) (Joule)
system.mem_ctrl.dram.rank0.selfRefreshEnergy            0                       # Energy for self refresh per rank (pJ) (Joule)
system.mem_ctrl.dram.rank0.totalEnergy   211848062185.865173                       # Total energy per rank (pJ) (Joule)
system.mem_ctrl.dram.rank0.averagePower    916.477644                       # Core power per rank (mW) (Watt)
system.mem_ctrl.dram.rank0.totalIdleTime            0                       # Total Idle time Per DRAM Rank (Tick)
system.mem_ctrl.dram.rank0.pwrStateTime::IDLE 134174471334                       # Time in different power states (Tick)
system.mem_ctrl.dram.rank0.pwrStateTime::REF  10391150000                       # Time in different power states (Tick)
system.mem_ctrl.dram.rank0.pwrStateTime::SREF            0                       # Time in different power states (Tick)
system.mem_ctrl.dram.rank0.pwrStateTime::PRE_PDN            0                       # Time in different power states (Tick)
system.mem_ctrl.dram.rank0.pwrStateTime::ACT  86589021166                       # Time in different power states (Tick)
system.mem_ctrl.dram.rank0.pwrStateTime::ACT_PDN            0                       # Time in different power states (Tick)
system.mem_ctrl.dram.rank1.actEnergy     114221173.248008                       # Energy for activate commands per rank (pJ) (Joule)
system.mem_ctrl.dram.rank1.preEnergy     151851439.118379                       # Energy for precharge commands per rank (pJ) (Joule)
system.mem_ctrl.dram.rank1.readEnergy    381458251.641559                       # Energy for read commands per rank (pJ) (Joule)
system.mem_ctrl.dram.rank1.writeEnergy   214489849.728003                       # Energy for write commands per rank (pJ) (Joule)
system.mem_ctrl.dram.rank1.refreshEnergy 41130476373.936211                       # Energy for refresh commands per rank (pJ) (Joule)
system.mem_ctrl.dram.rank1.actBackEnergy 85665015297.983643                       # Energy for active background per rank (pJ) (Joule)
system.mem_ctrl.dram.rank1.preBackEnergy 85076044156.715256                       # Energy for precharge background per rank (pJ) (Joule)
system.mem_ctrl.dram.rank1.actPowerDownEnergy            0                       # Energy for active power-down per rank (pJ) (Joule)
system.mem_ctrl.dram.rank1.prePowerDownEnergy            0                       # Energy for precharge power-down per rank (pJ) (Joule)
system.mem_ctrl.dram.rank1.selfRefreshEnergy            0                       # Energy for self refresh per rank (pJ) (Joule)
system.mem_ctrl.dram.rank1.totalEnergy   212733556542.391266                       # Total energy per rank (pJ) (Joule)
system.mem_ctrl.dram.rank1.averagePower    920.308389                       # Core power per rank (mW) (Watt)
system.mem_ctrl.dram.rank1.totalIdleTime            0                       # Total Idle time Per DRAM Rank (Tick)
system.mem_ctrl.dram.rank1.pwrStateTime::IDLE 129618291298                       # Time in different power states (Tick)
system.mem_ctrl.dram.rank1.pwrStateTime::REF  10391150000                       # Time in different power states (Tick)
system.mem_ctrl.dram.rank1.pwrStateTime::SREF            0                       # Time in different power states (Tick)
system.mem_ctrl.dram.rank1.pwrStateTime::PRE_PDN            0                       # Time in different power states (Tick)
system.mem_ctrl.dram.rank1.pwrStateTime::ACT  91145201202                       # Time in different power states (Tick)
system.mem_ctrl.dram.rank1.pwrStateTime::ACT_PDN            0                       # Time in different power states (Tick)
system.mem_ctrl.power_state.pwrStateResidencyTicks::UNDEFINED 231154642500                       # Cumulative time (in ticks) in various power states (Tick)
system.membus.transDist::ReadResp               64130                       # Transaction distribution (Count)
system.membus.transDist::WritebackDirty        113966                       # Transaction distribution (Count)
system.membus.transDist::CleanEvict             63377                       # Transaction distribution (Count)
system.membus.transDist::ReadExReq             117951                       # Transaction distribution (Count)
system.membus.transDist::ReadExResp            117951                       # Transaction distribution (Count)
system.membus.transDist::ReadSharedReq          64130                       # Transaction distribution (Count)
system.membus.pktCount_system.l2cache.mem_side_port::system.mem_ctrl.port       541505                       # Packet count per connected requestor and responder (Count)
system.membus.pktCount::total                  541505                       # Packet count per connected requestor and responder (Count)
system.membus.pktSize_system.l2cache.mem_side_port::system.mem_ctrl.port     18947008                       # Cumulative packet size per connected requestor and responder (Byte)
system.membus.pktSize::total                 18947008                       # Cumulative packet size per connected requestor and responder (Byte)
system.membus.snoops                                0                       # Total snoops (Count)
system.membus.snoopTraffic                          0                       # Total snoop traffic (Byte)
system.membus.snoopFanout::samples             182081                       # Request fanout histogram (Count)
system.membus.snoopFanout::mean                     0                       # Request fanout histogram (Count)
system.membus.snoopFanout::stdev                    0                       # Request fanout histogram (Count)
system.membus.snoopFanout::underflows               0      0.00%      0.00% # Request fanout histogram (Count)
system.membus.snoopFanout::0                   182081    100.00%    100.00% # Request fanout histogram (Count)
system.membus.snoopFanout::1                        0      0.00%    100.00% # Request fanout histogram (Count)
system.membus.snoopFanout::overflows                0      0.00%    100.00% # Request fanout histogram (Count)
system.membus.snoopFanout::min_value                0                       # Request fanout histogram (Count)
system.membus.snoopFanout::max_value                0                       # Request fanout histogram (Count)
system.membus.snoopFanout::total               182081                       # Request fanout histogram (Count)
system.membus.power_state.pwrStateResidencyTicks::UNDEFINED 231154642500                       # Cumulative time (in ticks) in various power states (Tick)
system.membus.reqLayer0.occupancy           407644000                       # Layer occupancy (ticks) (Tick)
system.membus.reqLayer0.utilization               0.0                       # Layer utilization (Ratio)
system.membus.respLayer0.occupancy          478665648                       # Layer occupancy (ticks) (Tick)
system.membus.respLayer0.utilization              0.0                       # Layer utilization (Ratio)
system.membus.snoop_filter.totRequests         359424                       # Total number of requests made to the snoop filter. (Count)
system.membus.snoop_filter.hitSingleRequests       177365                       # Number of requests hitting in the snoop filter with a single holder of the requested data. (Count)
system.membus.snoop_filter.hitMultiRequests            0                       # Number of requests hitting in the snoop filter with multiple (>1) holders of the requested data. (Count)
system.membus.snoop_filter.totSnoops                0                       # Total number of snoops made to the snoop filter. (Count)
system.membus.snoop_filter.hitSingleSnoops            0                       # Number of snoops hitting in the snoop filter with a single holder of the requested data. (Count)
system.membus.snoop_filter.hitMultiSnoops            0                       # Number of snoops hitting in the snoop filter with multiple (>1) holders of the requested data. (Count)
system.workload.inst.arm                            0                       # number of arm instructions executed (Count)
system.workload.inst.quiesce                        0                       # number of quiesce instructions executed (Count)

---------- End Simulation Statistics   ----------
