
---------- Begin Simulation Statistics ----------
simSeconds                                   0.478002                       # Number of seconds simulated (Second)
simTicks                                 478001905570                       # Number of ticks simulated (Tick)
finalTick                                478001905570                       # Number of ticks from beginning of simulation (restored from checkpoints and never reset) (Tick)
simFreq                                  1000000000000                       # The number of ticks per simulated second ((Tick/Second))
hostSeconds                                   2404.08                       # Real time elapsed on the host (Second)
hostTickRate                                198829526                       # The number of ticks simulated per host second (ticks/s) ((Tick/Second))
hostMemory                                    2285824                       # Number of bytes of host memory used (Byte)
simInsts                                   1000000000                       # Number of instructions simulated (Count)
simOps                                     1177827365                       # Number of ops (including micro ops) simulated (Count)
hostInstRate                                   415960                       # Simulator instruction rate (inst/s) ((Count/Second))
hostOpRate                                     489929                       # Simulator op (including micro ops) rate (op/s) ((Count/Second))
system.clk_domain.clock                           500                       # Clock period in ticks (Tick)
system.clk_domain.voltage_domain.voltage            1                       # Voltage in Volts (Volt)
system.cpu.numCycles                       1719431315                       # Number of cpu cycles simulated (Cycle)
system.cpu.numWorkItemsStarted                      0                       # Number of work items this cpu started (Count)
system.cpu.numWorkItemsCompleted                    0                       # Number of work items this cpu completed (Count)
system.cpu.numInsts                        1000000000                       # Number of instructions committed (Count)
system.cpu.numOps                          1177827365                       # Number of ops (including micro ops) committed (Count)
system.cpu.numDiscardedOps                   25779353                       # Number of ops (including micro ops) which were discarded before commit (Count)
system.cpu.numFetchSuspends                         0                       # Number of times Execute suspended instruction fetching (Count)
system.cpu.cpi                               1.719431                       # CPI: cycles per instruction ((Cycle/Count))
system.cpu.ipc                               0.581588                       # IPC: instructions per cycle ((Count/Cycle))
system.cpu.committedInstType_0::No_OpClass            0      0.00%      0.00% # Class of committed instruction (Count)
system.cpu.committedInstType_0::IntAlu      931875762     79.12%     79.12% # Class of committed instruction (Count)
system.cpu.committedInstType_0::IntMult      20154295      1.71%     80.83% # Class of committed instruction (Count)
system.cpu.committedInstType_0::IntDiv              0      0.00%     80.83% # Class of committed instruction (Count)
system.cpu.committedInstType_0::FloatAdd            0      0.00%     80.83% # Class of committed instruction (Count)
system.cpu.committedInstType_0::FloatCmp            0      0.00%     80.83% # Class of committed instruction (Count)
system.cpu.committedInstType_0::FloatCvt            0      0.00%     80.83% # Class of committed instruction (Count)
system.cpu.committedInstType_0::FloatMult            0      0.00%     80.83% # Class of committed instruction (Count)
system.cpu.committedInstType_0::FloatMultAcc            0      0.00%     80.83% # Class of committed instruction (Count)
system.cpu.committedInstType_0::FloatDiv            0      0.00%     80.83% # Class of committed instruction (Count)
system.cpu.committedInstType_0::FloatMisc            0      0.00%     80.83% # Class of committed instruction (Count)
system.cpu.committedInstType_0::FloatSqrt            0      0.00%     80.83% # Class of committed instruction (Count)
system.cpu.committedInstType_0::SimdAdd             0      0.00%     80.83% # Class of committed instruction (Count)
system.cpu.committedInstType_0::SimdAddAcc            0      0.00%     80.83% # Class of committed instruction (Count)
system.cpu.committedInstType_0::SimdAlu             0      0.00%     80.83% # Class of committed instruction (Count)
system.cpu.committedInstType_0::SimdCmp             0      0.00%     80.83% # Class of committed instruction (Count)
system.cpu.committedInstType_0::SimdCvt             0      0.00%     80.83% # Class of committed instruction (Count)
system.cpu.committedInstType_0::SimdMisc            0      0.00%     80.83% # Class of committed instruction (Count)
system.cpu.committedInstType_0::SimdMult            0      0.00%     80.83% # Class of committed instruction (Count)
system.cpu.committedInstType_0::SimdMultAcc            0      0.00%     80.83% # Class of committed instruction (Count)
system.cpu.committedInstType_0::SimdShift            0      0.00%     80.83% # Class of committed instruction (Count)
system.cpu.committedInstType_0::SimdShiftAcc            0      0.00%     80.83% # Class of committed instruction (Count)
system.cpu.committedInstType_0::SimdDiv             0      0.00%     80.83% # Class of committed instruction (Count)
system.cpu.committedInstType_0::SimdSqrt            0      0.00%     80.83% # Class of committed instruction (Count)
system.cpu.committedInstType_0::SimdFloatAdd            0      0.00%     80.83% # Class of committed instruction (Count)
system.cpu.committedInstType_0::SimdFloatAlu            0      0.00%     80.83% # Class of committed instruction (Count)
system.cpu.committedInstType_0::SimdFloatCmp            0      0.00%     80.83% # Class of committed instruction (Count)
system.cpu.committedInstType_0::SimdFloatCvt            0      0.00%     80.83% # Class of committed instruction (Count)
system.cpu.committedInstType_0::SimdFloatDiv            0      0.00%     80.83% # Class of committed instruction (Count)
system.cpu.committedInstType_0::SimdFloatMisc            0      0.00%     80.83% # Class of committed instruction (Count)
system.cpu.committedInstType_0::SimdFloatMult            0      0.00%     80.83% # Class of committed instruction (Count)
system.cpu.committedInstType_0::SimdFloatMultAcc            0      0.00%     80.83% # Class of committed instruction (Count)
system.cpu.committedInstType_0::SimdFloatSqrt            0      0.00%     80.83% # Class of committed instruction (Count)
system.cpu.committedInstType_0::SimdReduceAdd            0      0.00%     80.83% # Class of committed instruction (Count)
system.cpu.committedInstType_0::SimdReduceAlu            0      0.00%     80.83% # Class of committed instruction (Count)
system.cpu.committedInstType_0::SimdReduceCmp            0      0.00%     80.83% # Class of committed instruction (Count)
system.cpu.committedInstType_0::SimdFloatReduceAdd            0      0.00%     80.83% # Class of committed instruction (Count)
system.cpu.committedInstType_0::SimdFloatReduceCmp            0      0.00%     80.83% # Class of committed instruction (Count)
system.cpu.committedInstType_0::SimdAes             0      0.00%     80.83% # Class of committed instruction (Count)
system.cpu.committedInstType_0::SimdAesMix            0      0.00%     80.83% # Class of committed instruction (Count)
system.cpu.committedInstType_0::SimdSha1Hash            0      0.00%     80.83% # Class of committed instruction (Count)
system.cpu.committedInstType_0::SimdSha1Hash2            0      0.00%     80.83% # Class of committed instruction (Count)
system.cpu.committedInstType_0::SimdSha256Hash            0      0.00%     80.83% # Class of committed instruction (Count)
system.cpu.committedInstType_0::SimdSha256Hash2            0      0.00%     80.83% # Class of committed instruction (Count)
system.cpu.committedInstType_0::SimdShaSigma2            0      0.00%     80.83% # Class of committed instruction (Count)
system.cpu.committedInstType_0::SimdShaSigma3            0      0.00%     80.83% # Class of committed instruction (Count)
system.cpu.committedInstType_0::SimdPredAlu            0      0.00%     80.83% # Class of committed instruction (Count)
system.cpu.committedInstType_0::MemRead     120667805     10.24%     91.07% # Class of committed instruction (Count)
system.cpu.committedInstType_0::MemWrite    105129503      8.93%    100.00% # Class of committed instruction (Count)
system.cpu.committedInstType_0::FloatMemRead            0      0.00%    100.00% # Class of committed instruction (Count)
system.cpu.committedInstType_0::FloatMemWrite            0      0.00%    100.00% # Class of committed instruction (Count)
system.cpu.committedInstType_0::IprAccess            0      0.00%    100.00% # Class of committed instruction (Count)
system.cpu.committedInstType_0::InstPrefetch            0      0.00%    100.00% # Class of committed instruction (Count)
system.cpu.committedInstType_0::total      1177827365                       # Class of committed instruction (Count)
system.cpu.branchPred.lookups               161500744                       # Number of BP lookups (Count)
system.cpu.branchPred.condPredicted         105795227                       # Number of conditional branches predicted (Count)
system.cpu.branchPred.condIncorrect            145871                       # Number of conditional branches incorrect (Count)
system.cpu.branchPred.BTBLookups             85624574                       # Number of BTB lookups (Count)
system.cpu.branchPred.BTBHits                77245449                       # Number of BTB hits (Count)
system.cpu.branchPred.BTBHitRatio            0.902141                       # BTB Hit Ratio (Ratio)
system.cpu.branchPred.RASUsed                21331724                       # Number of times the RAS was used to get a target. (Count)
system.cpu.branchPred.RASIncorrect                 55                       # Number of incorrect RAS predictions. (Count)
system.cpu.branchPred.indirectLookups             133                       # Number of indirect predictor lookups. (Count)
system.cpu.branchPred.indirectHits                 27                       # Number of indirect target hits. (Count)
system.cpu.branchPred.indirectMisses              106                       # Number of indirect misses. (Count)
system.cpu.branchPred.indirectMispredicted           65                       # Number of mispredicted indirect branches. (Count)
system.cpu.dcache.demandHits::cpu.data      214481633                       # number of demand (read+write) hits (Count)
system.cpu.dcache.demandHits::total         214481633                       # number of demand (read+write) hits (Count)
system.cpu.dcache.overallHits::cpu.data     214481633                       # number of overall hits (Count)
system.cpu.dcache.overallHits::total        214481633                       # number of overall hits (Count)
system.cpu.dcache.demandMisses::cpu.data      2567871                       # number of demand (read+write) misses (Count)
system.cpu.dcache.demandMisses::total         2567871                       # number of demand (read+write) misses (Count)
system.cpu.dcache.overallMisses::cpu.data      2567871                       # number of overall misses (Count)
system.cpu.dcache.overallMisses::total        2567871                       # number of overall misses (Count)
system.cpu.dcache.demandMissLatency::cpu.data 217364692028                       # number of demand (read+write) miss ticks (Tick)
system.cpu.dcache.demandMissLatency::total 217364692028                       # number of demand (read+write) miss ticks (Tick)
system.cpu.dcache.overallMissLatency::cpu.data 217364692028                       # number of overall miss ticks (Tick)
system.cpu.dcache.overallMissLatency::total 217364692028                       # number of overall miss ticks (Tick)
system.cpu.dcache.demandAccesses::cpu.data    217049504                       # number of demand (read+write) accesses (Count)
system.cpu.dcache.demandAccesses::total     217049504                       # number of demand (read+write) accesses (Count)
system.cpu.dcache.overallAccesses::cpu.data    217049504                       # number of overall (read+write) accesses (Count)
system.cpu.dcache.overallAccesses::total    217049504                       # number of overall (read+write) accesses (Count)
system.cpu.dcache.demandMissRate::cpu.data     0.011831                       # miss rate for demand accesses (Ratio)
system.cpu.dcache.demandMissRate::total      0.011831                       # miss rate for demand accesses (Ratio)
system.cpu.dcache.overallMissRate::cpu.data     0.011831                       # miss rate for overall accesses (Ratio)
system.cpu.dcache.overallMissRate::total     0.011831                       # miss rate for overall accesses (Ratio)
system.cpu.dcache.demandAvgMissLatency::cpu.data 84647.823831                       # average overall miss latency in ticks ((Tick/Count))
system.cpu.dcache.demandAvgMissLatency::total 84647.823831                       # average overall miss latency in ticks ((Tick/Count))
system.cpu.dcache.overallAvgMissLatency::cpu.data 84647.823831                       # average overall miss latency ((Tick/Count))
system.cpu.dcache.overallAvgMissLatency::total 84647.823831                       # average overall miss latency ((Tick/Count))
system.cpu.dcache.blockedCycles::no_mshrs            0                       # number of cycles access was blocked (Cycle)
system.cpu.dcache.blockedCycles::no_targets            0                       # number of cycles access was blocked (Cycle)
system.cpu.dcache.blockedCauses::no_mshrs            0                       # number of times access was blocked (Count)
system.cpu.dcache.blockedCauses::no_targets            0                       # number of times access was blocked (Count)
system.cpu.dcache.avgBlocked::no_mshrs            nan                       # average number of cycles each access was blocked ((Cycle/Count))
system.cpu.dcache.avgBlocked::no_targets          nan                       # average number of cycles each access was blocked ((Cycle/Count))
system.cpu.dcache.writebacks::writebacks       524419                       # number of writebacks (Count)
system.cpu.dcache.writebacks::total            524419                       # number of writebacks (Count)
system.cpu.dcache.demandMshrHits::cpu.data       524518                       # number of demand (read+write) MSHR hits (Count)
system.cpu.dcache.demandMshrHits::total        524518                       # number of demand (read+write) MSHR hits (Count)
system.cpu.dcache.overallMshrHits::cpu.data       524518                       # number of overall MSHR hits (Count)
system.cpu.dcache.overallMshrHits::total       524518                       # number of overall MSHR hits (Count)
system.cpu.dcache.demandMshrMisses::cpu.data      2043353                       # number of demand (read+write) MSHR misses (Count)
system.cpu.dcache.demandMshrMisses::total      2043353                       # number of demand (read+write) MSHR misses (Count)
system.cpu.dcache.overallMshrMisses::cpu.data      2043353                       # number of overall MSHR misses (Count)
system.cpu.dcache.overallMshrMisses::total      2043353                       # number of overall MSHR misses (Count)
system.cpu.dcache.demandMshrMissLatency::cpu.data 176712595912                       # number of demand (read+write) MSHR miss ticks (Tick)
system.cpu.dcache.demandMshrMissLatency::total 176712595912                       # number of demand (read+write) MSHR miss ticks (Tick)
system.cpu.dcache.overallMshrMissLatency::cpu.data 176712595912                       # number of overall MSHR miss ticks (Tick)
system.cpu.dcache.overallMshrMissLatency::total 176712595912                       # number of overall MSHR miss ticks (Tick)
system.cpu.dcache.demandMshrMissRate::cpu.data     0.009414                       # mshr miss ratio for demand accesses (Ratio)
system.cpu.dcache.demandMshrMissRate::total     0.009414                       # mshr miss ratio for demand accesses (Ratio)
system.cpu.dcache.overallMshrMissRate::cpu.data     0.009414                       # mshr miss ratio for overall accesses (Ratio)
system.cpu.dcache.overallMshrMissRate::total     0.009414                       # mshr miss ratio for overall accesses (Ratio)
system.cpu.dcache.demandAvgMshrMissLatency::cpu.data 86481.677866                       # average overall mshr miss latency ((Tick/Count))
system.cpu.dcache.demandAvgMshrMissLatency::total 86481.677866                       # average overall mshr miss latency ((Tick/Count))
system.cpu.dcache.overallAvgMshrMissLatency::cpu.data 86481.677866                       # average overall mshr miss latency ((Tick/Count))
system.cpu.dcache.overallAvgMshrMissLatency::total 86481.677866                       # average overall mshr miss latency ((Tick/Count))
system.cpu.dcache.replacements                2042841                       # number of replacements (Count)
system.cpu.dcache.LoadLockedReq.hits::cpu.data           41                       # number of LoadLockedReq hits (Count)
system.cpu.dcache.LoadLockedReq.hits::total           41                       # number of LoadLockedReq hits (Count)
system.cpu.dcache.LoadLockedReq.accesses::cpu.data           41                       # number of LoadLockedReq accesses(hits+misses) (Count)
system.cpu.dcache.LoadLockedReq.accesses::total           41                       # number of LoadLockedReq accesses(hits+misses) (Count)
system.cpu.dcache.ReadReq.hits::cpu.data    110409426                       # number of ReadReq hits (Count)
system.cpu.dcache.ReadReq.hits::total       110409426                       # number of ReadReq hits (Count)
system.cpu.dcache.ReadReq.misses::cpu.data      1518832                       # number of ReadReq misses (Count)
system.cpu.dcache.ReadReq.misses::total       1518832                       # number of ReadReq misses (Count)
system.cpu.dcache.ReadReq.missLatency::cpu.data 139159067256                       # number of ReadReq miss ticks (Tick)
system.cpu.dcache.ReadReq.missLatency::total 139159067256                       # number of ReadReq miss ticks (Tick)
system.cpu.dcache.ReadReq.accesses::cpu.data    111928258                       # number of ReadReq accesses(hits+misses) (Count)
system.cpu.dcache.ReadReq.accesses::total    111928258                       # number of ReadReq accesses(hits+misses) (Count)
system.cpu.dcache.ReadReq.missRate::cpu.data     0.013570                       # miss rate for ReadReq accesses (Ratio)
system.cpu.dcache.ReadReq.missRate::total     0.013570                       # miss rate for ReadReq accesses (Ratio)
system.cpu.dcache.ReadReq.avgMissLatency::cpu.data 91622.422530                       # average ReadReq miss latency ((Tick/Count))
system.cpu.dcache.ReadReq.avgMissLatency::total 91622.422530                       # average ReadReq miss latency ((Tick/Count))
system.cpu.dcache.ReadReq.mshrHits::cpu.data            9                       # number of ReadReq MSHR hits (Count)
system.cpu.dcache.ReadReq.mshrHits::total            9                       # number of ReadReq MSHR hits (Count)
system.cpu.dcache.ReadReq.mshrMisses::cpu.data      1518823                       # number of ReadReq MSHR misses (Count)
system.cpu.dcache.ReadReq.mshrMisses::total      1518823                       # number of ReadReq MSHR misses (Count)
system.cpu.dcache.ReadReq.mshrMissLatency::cpu.data 138156806534                       # number of ReadReq MSHR miss ticks (Tick)
system.cpu.dcache.ReadReq.mshrMissLatency::total 138156806534                       # number of ReadReq MSHR miss ticks (Tick)
system.cpu.dcache.ReadReq.mshrMissRate::cpu.data     0.013570                       # mshr miss rate for ReadReq accesses (Ratio)
system.cpu.dcache.ReadReq.mshrMissRate::total     0.013570                       # mshr miss rate for ReadReq accesses (Ratio)
system.cpu.dcache.ReadReq.avgMshrMissLatency::cpu.data 90963.072415                       # average ReadReq mshr miss latency ((Tick/Count))
system.cpu.dcache.ReadReq.avgMshrMissLatency::total 90963.072415                       # average ReadReq mshr miss latency ((Tick/Count))
system.cpu.dcache.StoreCondReq.hits::cpu.data           41                       # number of StoreCondReq hits (Count)
system.cpu.dcache.StoreCondReq.hits::total           41                       # number of StoreCondReq hits (Count)
system.cpu.dcache.StoreCondReq.accesses::cpu.data           41                       # number of StoreCondReq accesses(hits+misses) (Count)
system.cpu.dcache.StoreCondReq.accesses::total           41                       # number of StoreCondReq accesses(hits+misses) (Count)
system.cpu.dcache.WriteReq.hits::cpu.data    104072207                       # number of WriteReq hits (Count)
system.cpu.dcache.WriteReq.hits::total      104072207                       # number of WriteReq hits (Count)
system.cpu.dcache.WriteReq.misses::cpu.data      1049039                       # number of WriteReq misses (Count)
system.cpu.dcache.WriteReq.misses::total      1049039                       # number of WriteReq misses (Count)
system.cpu.dcache.WriteReq.missLatency::cpu.data  78205624772                       # number of WriteReq miss ticks (Tick)
system.cpu.dcache.WriteReq.missLatency::total  78205624772                       # number of WriteReq miss ticks (Tick)
system.cpu.dcache.WriteReq.accesses::cpu.data    105121246                       # number of WriteReq accesses(hits+misses) (Count)
system.cpu.dcache.WriteReq.accesses::total    105121246                       # number of WriteReq accesses(hits+misses) (Count)
system.cpu.dcache.WriteReq.missRate::cpu.data     0.009979                       # miss rate for WriteReq accesses (Ratio)
system.cpu.dcache.WriteReq.missRate::total     0.009979                       # miss rate for WriteReq accesses (Ratio)
system.cpu.dcache.WriteReq.avgMissLatency::cpu.data 74549.778199                       # average WriteReq miss latency ((Tick/Count))
system.cpu.dcache.WriteReq.avgMissLatency::total 74549.778199                       # average WriteReq miss latency ((Tick/Count))
system.cpu.dcache.WriteReq.mshrHits::cpu.data       524509                       # number of WriteReq MSHR hits (Count)
system.cpu.dcache.WriteReq.mshrHits::total       524509                       # number of WriteReq MSHR hits (Count)
system.cpu.dcache.WriteReq.mshrMisses::cpu.data       524530                       # number of WriteReq MSHR misses (Count)
system.cpu.dcache.WriteReq.mshrMisses::total       524530                       # number of WriteReq MSHR misses (Count)
system.cpu.dcache.WriteReq.mshrMissLatency::cpu.data  38555789378                       # number of WriteReq MSHR miss ticks (Tick)
system.cpu.dcache.WriteReq.mshrMissLatency::total  38555789378                       # number of WriteReq MSHR miss ticks (Tick)
system.cpu.dcache.WriteReq.mshrMissRate::cpu.data     0.004990                       # mshr miss rate for WriteReq accesses (Ratio)
system.cpu.dcache.WriteReq.mshrMissRate::total     0.004990                       # mshr miss rate for WriteReq accesses (Ratio)
system.cpu.dcache.WriteReq.avgMshrMissLatency::cpu.data 73505.403653                       # average WriteReq mshr miss latency ((Tick/Count))
system.cpu.dcache.WriteReq.avgMshrMissLatency::total 73505.403653                       # average WriteReq mshr miss latency ((Tick/Count))
system.cpu.dcache.power_state.pwrStateResidencyTicks::UNDEFINED 478001905570                       # Cumulative time (in ticks) in various power states (Tick)
system.cpu.dcache.tags.tagsInUse           511.888561                       # Average ticks per tags in use ((Tick/Count))
system.cpu.dcache.tags.totalRefs            216525068                       # Total number of references to valid blocks. (Count)
system.cpu.dcache.tags.sampledRefs            2043353                       # Sample count of references to valid blocks. (Count)
system.cpu.dcache.tags.avgRefs             105.965571                       # Average number of references to valid blocks. ((Count/Count))
system.cpu.dcache.tags.warmupTick              163500                       # The tick when the warmup percentage was hit. (Tick)
system.cpu.dcache.tags.occupancies::cpu.data   511.888561                       # Average occupied blocks per tick, per requestor ((Count/Tick))
system.cpu.dcache.tags.avgOccs::cpu.data     0.999782                       # Average percentage of cache occupancy ((Ratio/Tick))
system.cpu.dcache.tags.avgOccs::total        0.999782                       # Average percentage of cache occupancy ((Ratio/Tick))
system.cpu.dcache.tags.occupanciesTaskId::1024          512                       # Occupied blocks per task id (Count)
system.cpu.dcache.tags.ageTaskId_1024::0            3                       # Occupied blocks per task id, per block age (Count)
system.cpu.dcache.tags.ageTaskId_1024::2            4                       # Occupied blocks per task id, per block age (Count)
system.cpu.dcache.tags.ageTaskId_1024::3           28                       # Occupied blocks per task id, per block age (Count)
system.cpu.dcache.tags.ageTaskId_1024::4          477                       # Occupied blocks per task id, per block age (Count)
system.cpu.dcache.tags.ratioOccsTaskId::1024            1                       # Ratio of occupied blocks and all blocks, per task id (Ratio)
system.cpu.dcache.tags.tagAccesses          870241697                       # Number of tag accesses (Count)
system.cpu.dcache.tags.dataAccesses         870241697                       # Number of data accesses (Count)
system.cpu.dcache.tags.power_state.pwrStateResidencyTicks::UNDEFINED 478001905570                       # Cumulative time (in ticks) in various power states (Tick)
system.cpu.fetch2.intInstructions           884536068                       # Number of integer instructions successfully decoded (Count)
system.cpu.fetch2.fpInstructions                    0                       # Number of floating point instructions successfully decoded (Count)
system.cpu.fetch2.vecInstructions                   0                       # Number of SIMD instructions successfully decoded (Count)
system.cpu.fetch2.loadInstructions           60583877                       # Number of memory load instructions successfully decoded (Count)
system.cpu.fetch2.storeInstructions           5731722                       # Number of memory store instructions successfully decoded (Count)
system.cpu.fetch2.amoInstructions                   0                       # Number of memory atomic instructions successfully decoded (Count)
system.cpu.icache.demandHits::cpu.inst      320565339                       # number of demand (read+write) hits (Count)
system.cpu.icache.demandHits::total         320565339                       # number of demand (read+write) hits (Count)
system.cpu.icache.overallHits::cpu.inst     320565339                       # number of overall hits (Count)
system.cpu.icache.overallHits::total        320565339                       # number of overall hits (Count)
system.cpu.icache.demandMisses::cpu.inst          381                       # number of demand (read+write) misses (Count)
system.cpu.icache.demandMisses::total             381                       # number of demand (read+write) misses (Count)
system.cpu.icache.overallMisses::cpu.inst          381                       # number of overall misses (Count)
system.cpu.icache.overallMisses::total            381                       # number of overall misses (Count)
system.cpu.icache.demandMissLatency::cpu.inst     26441136                       # number of demand (read+write) miss ticks (Tick)
system.cpu.icache.demandMissLatency::total     26441136                       # number of demand (read+write) miss ticks (Tick)
system.cpu.icache.overallMissLatency::cpu.inst     26441136                       # number of overall miss ticks (Tick)
system.cpu.icache.overallMissLatency::total     26441136                       # number of overall miss ticks (Tick)
system.cpu.icache.demandAccesses::cpu.inst    320565720                       # number of demand (read+write) accesses (Count)
system.cpu.icache.demandAccesses::total     320565720                       # number of demand (read+write) accesses (Count)
system.cpu.icache.overallAccesses::cpu.inst    320565720                       # number of overall (read+write) accesses (Count)
system.cpu.icache.overallAccesses::total    320565720                       # number of overall (read+write) accesses (Count)
system.cpu.icache.demandMissRate::cpu.inst     0.000001                       # miss rate for demand accesses (Ratio)
system.cpu.icache.demandMissRate::total      0.000001                       # miss rate for demand accesses (Ratio)
system.cpu.icache.overallMissRate::cpu.inst     0.000001                       # miss rate for overall accesses (Ratio)
system.cpu.icache.overallMissRate::total     0.000001                       # miss rate for overall accesses (Ratio)
system.cpu.icache.demandAvgMissLatency::cpu.inst 69399.307087                       # average overall miss latency in ticks ((Tick/Count))
system.cpu.icache.demandAvgMissLatency::total 69399.307087                       # average overall miss latency in ticks ((Tick/Count))
system.cpu.icache.overallAvgMissLatency::cpu.inst 69399.307087                       # average overall miss latency ((Tick/Count))
system.cpu.icache.overallAvgMissLatency::total 69399.307087                       # average overall miss latency ((Tick/Count))
system.cpu.icache.blockedCycles::no_mshrs            0                       # number of cycles access was blocked (Cycle)
system.cpu.icache.blockedCycles::no_targets            0                       # number of cycles access was blocked (Cycle)
system.cpu.icache.blockedCauses::no_mshrs            0                       # number of times access was blocked (Count)
system.cpu.icache.blockedCauses::no_targets            0                       # number of times access was blocked (Count)
system.cpu.icache.avgBlocked::no_mshrs            nan                       # average number of cycles each access was blocked ((Cycle/Count))
system.cpu.icache.avgBlocked::no_targets          nan                       # average number of cycles each access was blocked ((Cycle/Count))
system.cpu.icache.demandMshrMisses::cpu.inst          381                       # number of demand (read+write) MSHR misses (Count)
system.cpu.icache.demandMshrMisses::total          381                       # number of demand (read+write) MSHR misses (Count)
system.cpu.icache.overallMshrMisses::cpu.inst          381                       # number of overall MSHR misses (Count)
system.cpu.icache.overallMshrMisses::total          381                       # number of overall MSHR misses (Count)
system.cpu.icache.demandMshrMissLatency::cpu.inst     26180514                       # number of demand (read+write) MSHR miss ticks (Tick)
system.cpu.icache.demandMshrMissLatency::total     26180514                       # number of demand (read+write) MSHR miss ticks (Tick)
system.cpu.icache.overallMshrMissLatency::cpu.inst     26180514                       # number of overall MSHR miss ticks (Tick)
system.cpu.icache.overallMshrMissLatency::total     26180514                       # number of overall MSHR miss ticks (Tick)
system.cpu.icache.demandMshrMissRate::cpu.inst     0.000001                       # mshr miss ratio for demand accesses (Ratio)
system.cpu.icache.demandMshrMissRate::total     0.000001                       # mshr miss ratio for demand accesses (Ratio)
system.cpu.icache.overallMshrMissRate::cpu.inst     0.000001                       # mshr miss ratio for overall accesses (Ratio)
system.cpu.icache.overallMshrMissRate::total     0.000001                       # mshr miss ratio for overall accesses (Ratio)
system.cpu.icache.demandAvgMshrMissLatency::cpu.inst 68715.259843                       # average overall mshr miss latency ((Tick/Count))
system.cpu.icache.demandAvgMshrMissLatency::total 68715.259843                       # average overall mshr miss latency ((Tick/Count))
system.cpu.icache.overallAvgMshrMissLatency::cpu.inst 68715.259843                       # average overall mshr miss latency ((Tick/Count))
system.cpu.icache.overallAvgMshrMissLatency::total 68715.259843                       # average overall mshr miss latency ((Tick/Count))
system.cpu.icache.replacements                     21                       # number of replacements (Count)
system.cpu.icache.ReadReq.hits::cpu.inst    320565339                       # number of ReadReq hits (Count)
system.cpu.icache.ReadReq.hits::total       320565339                       # number of ReadReq hits (Count)
system.cpu.icache.ReadReq.misses::cpu.inst          381                       # number of ReadReq misses (Count)
system.cpu.icache.ReadReq.misses::total           381                       # number of ReadReq misses (Count)
system.cpu.icache.ReadReq.missLatency::cpu.inst     26441136                       # number of ReadReq miss ticks (Tick)
system.cpu.icache.ReadReq.missLatency::total     26441136                       # number of ReadReq miss ticks (Tick)
system.cpu.icache.ReadReq.accesses::cpu.inst    320565720                       # number of ReadReq accesses(hits+misses) (Count)
system.cpu.icache.ReadReq.accesses::total    320565720                       # number of ReadReq accesses(hits+misses) (Count)
system.cpu.icache.ReadReq.missRate::cpu.inst     0.000001                       # miss rate for ReadReq accesses (Ratio)
system.cpu.icache.ReadReq.missRate::total     0.000001                       # miss rate for ReadReq accesses (Ratio)
system.cpu.icache.ReadReq.avgMissLatency::cpu.inst 69399.307087                       # average ReadReq miss latency ((Tick/Count))
system.cpu.icache.ReadReq.avgMissLatency::total 69399.307087                       # average ReadReq miss latency ((Tick/Count))
system.cpu.icache.ReadReq.mshrMisses::cpu.inst          381                       # number of ReadReq MSHR misses (Count)
system.cpu.icache.ReadReq.mshrMisses::total          381                       # number of ReadReq MSHR misses (Count)
system.cpu.icache.ReadReq.mshrMissLatency::cpu.inst     26180514                       # number of ReadReq MSHR miss ticks (Tick)
system.cpu.icache.ReadReq.mshrMissLatency::total     26180514                       # number of ReadReq MSHR miss ticks (Tick)
system.cpu.icache.ReadReq.mshrMissRate::cpu.inst     0.000001                       # mshr miss rate for ReadReq accesses (Ratio)
system.cpu.icache.ReadReq.mshrMissRate::total     0.000001                       # mshr miss rate for ReadReq accesses (Ratio)
system.cpu.icache.ReadReq.avgMshrMissLatency::cpu.inst 68715.259843                       # average ReadReq mshr miss latency ((Tick/Count))
system.cpu.icache.ReadReq.avgMshrMissLatency::total 68715.259843                       # average ReadReq mshr miss latency ((Tick/Count))
system.cpu.icache.power_state.pwrStateResidencyTicks::UNDEFINED 478001905570                       # Cumulative time (in ticks) in various power states (Tick)
system.cpu.icache.tags.tagsInUse           347.880203                       # Average ticks per tags in use ((Tick/Count))
system.cpu.icache.tags.totalRefs            320565720                       # Total number of references to valid blocks. (Count)
system.cpu.icache.tags.sampledRefs                381                       # Sample count of references to valid blocks. (Count)
system.cpu.icache.tags.avgRefs           841379.842520                       # Average number of references to valid blocks. ((Count/Count))
system.cpu.icache.tags.warmupTick               82000                       # The tick when the warmup percentage was hit. (Tick)
system.cpu.icache.tags.occupancies::cpu.inst   347.880203                       # Average occupied blocks per tick, per requestor ((Count/Tick))
system.cpu.icache.tags.avgOccs::cpu.inst     0.679454                       # Average percentage of cache occupancy ((Ratio/Tick))
system.cpu.icache.tags.avgOccs::total        0.679454                       # Average percentage of cache occupancy ((Ratio/Tick))
system.cpu.icache.tags.occupanciesTaskId::1024          360                       # Occupied blocks per task id (Count)
system.cpu.icache.tags.ageTaskId_1024::4          360                       # Occupied blocks per task id, per block age (Count)
system.cpu.icache.tags.ratioOccsTaskId::1024     0.703125                       # Ratio of occupied blocks and all blocks, per task id (Ratio)
system.cpu.icache.tags.tagAccesses         1282263261                       # Number of tag accesses (Count)
system.cpu.icache.tags.dataAccesses        1282263261                       # Number of data accesses (Count)
system.cpu.icache.tags.power_state.pwrStateResidencyTicks::UNDEFINED 478001905570                       # Cumulative time (in ticks) in various power states (Tick)
system.cpu.mmu.alignFaults                          0                       # Number of MMU faults due to alignment restrictions (Count)
system.cpu.mmu.prefetchFaults                       0                       # Number of MMU faults due to prefetch (Count)
system.cpu.mmu.domainFaults                         0                       # Number of MMU faults due to domain restrictions (Count)
system.cpu.mmu.permsFaults                          0                       # Number of MMU faults due to permissions restrictions (Count)
system.cpu.mmu.dtb.readHits                         0                       # Read hits (Count)
system.cpu.mmu.dtb.readMisses                       0                       # Read misses (Count)
system.cpu.mmu.dtb.writeHits                        0                       # Write hits (Count)
system.cpu.mmu.dtb.writeMisses                      0                       # Write misses (Count)
system.cpu.mmu.dtb.inserts                          0                       # Number of times an entry is inserted into the TLB (Count)
system.cpu.mmu.dtb.flushTlb                         0                       # Number of times complete TLB was flushed (Count)
system.cpu.mmu.dtb.flushTlbMva                      0                       # Number of times TLB was flushed by MVA (Count)
system.cpu.mmu.dtb.flushTlbMvaAsid                  0                       # Number of times TLB was flushed by MVA & ASID (Count)
system.cpu.mmu.dtb.flushTlbAsid                     0                       # Number of times TLB was flushed by ASID (Count)
system.cpu.mmu.dtb.flushedEntries                   0                       # Number of entries that have been flushed from TLB (Count)
system.cpu.mmu.dtb.readAccesses                     0                       # Read accesses (Count)
system.cpu.mmu.dtb.writeAccesses                    0                       # Write accesses (Count)
system.cpu.mmu.dtb.hits                             0                       # Total TLB (inst and data) hits (Count)
system.cpu.mmu.dtb.misses                           0                       # Total TLB (inst and data) misses (Count)
system.cpu.mmu.dtb.accesses                         0                       # Total TLB (inst and data) accesses (Count)
system.cpu.mmu.dtb_walker.walks                     0                       # Table walker walks requested (Count)
system.cpu.mmu.dtb_walker.requestOrigin_Requested::Data            0                       # Table walker requests started/completed, data/inst (Count)
system.cpu.mmu.dtb_walker.requestOrigin_Requested::Inst            0                       # Table walker requests started/completed, data/inst (Count)
system.cpu.mmu.dtb_walker.requestOrigin_Requested::total            0                       # Table walker requests started/completed, data/inst (Count)
system.cpu.mmu.dtb_walker.requestOrigin_Completed::Data            0                       # Table walker requests started/completed, data/inst (Count)
system.cpu.mmu.dtb_walker.requestOrigin_Completed::Inst            0                       # Table walker requests started/completed, data/inst (Count)
system.cpu.mmu.dtb_walker.requestOrigin_Completed::total            0                       # Table walker requests started/completed, data/inst (Count)
system.cpu.mmu.dtb_walker.requestOrigin::total            0                       # Table walker requests started/completed, data/inst (Count)
system.cpu.mmu.dtb_walker.power_state.pwrStateResidencyTicks::UNDEFINED 478001905570                       # Cumulative time (in ticks) in various power states (Tick)
system.cpu.mmu.itb.instHits                         0                       # Inst hits (Count)
system.cpu.mmu.itb.instMisses                       0                       # Inst misses (Count)
system.cpu.mmu.itb.inserts                          0                       # Number of times an entry is inserted into the TLB (Count)
system.cpu.mmu.itb.flushTlb                         0                       # Number of times complete TLB was flushed (Count)
system.cpu.mmu.itb.flushTlbMva                      0                       # Number of times TLB was flushed by MVA (Count)
system.cpu.mmu.itb.flushTlbMvaAsid                  0                       # Number of times TLB was flushed by MVA & ASID (Count)
system.cpu.mmu.itb.flushTlbAsid                     0                       # Number of times TLB was flushed by ASID (Count)
system.cpu.mmu.itb.flushedEntries                   0                       # Number of entries that have been flushed from TLB (Count)
system.cpu.mmu.itb.instAccesses                     0                       # Inst accesses (Count)
system.cpu.mmu.itb.hits                             0                       # Total TLB (inst and data) hits (Count)
system.cpu.mmu.itb.misses                           0                       # Total TLB (inst and data) misses (Count)
system.cpu.mmu.itb.accesses                         0                       # Total TLB (inst and data) accesses (Count)
system.cpu.mmu.itb_walker.walks                     0                       # Table walker walks requested (Count)
system.cpu.mmu.itb_walker.requestOrigin_Requested::Data            0                       # Table walker requests started/completed, data/inst (Count)
system.cpu.mmu.itb_walker.requestOrigin_Requested::Inst            0                       # Table walker requests started/completed, data/inst (Count)
system.cpu.mmu.itb_walker.requestOrigin_Requested::total            0                       # Table walker requests started/completed, data/inst (Count)
system.cpu.mmu.itb_walker.requestOrigin_Completed::Data            0                       # Table walker requests started/completed, data/inst (Count)
system.cpu.mmu.itb_walker.requestOrigin_Completed::Inst            0                       # Table walker requests started/completed, data/inst (Count)
system.cpu.mmu.itb_walker.requestOrigin_Completed::total            0                       # Table walker requests started/completed, data/inst (Count)
system.cpu.mmu.itb_walker.requestOrigin::total            0                       # Table walker requests started/completed, data/inst (Count)
system.cpu.mmu.itb_walker.power_state.pwrStateResidencyTicks::UNDEFINED 478001905570                       # Cumulative time (in ticks) in various power states (Tick)
system.cpu.mmu.l2_shared.instHits                   0                       # Inst hits (Count)
system.cpu.mmu.l2_shared.instMisses                 0                       # Inst misses (Count)
system.cpu.mmu.l2_shared.inserts                    0                       # Number of times an entry is inserted into the TLB (Count)
system.cpu.mmu.l2_shared.flushTlb                   0                       # Number of times complete TLB was flushed (Count)
system.cpu.mmu.l2_shared.flushTlbMva                0                       # Number of times TLB was flushed by MVA (Count)
system.cpu.mmu.l2_shared.flushTlbMvaAsid            0                       # Number of times TLB was flushed by MVA & ASID (Count)
system.cpu.mmu.l2_shared.flushTlbAsid               0                       # Number of times TLB was flushed by ASID (Count)
system.cpu.mmu.l2_shared.flushedEntries             0                       # Number of entries that have been flushed from TLB (Count)
system.cpu.mmu.l2_shared.instAccesses               0                       # Inst accesses (Count)
system.cpu.mmu.l2_shared.hits                       0                       # Total TLB (inst and data) hits (Count)
system.cpu.mmu.l2_shared.misses                     0                       # Total TLB (inst and data) misses (Count)
system.cpu.mmu.l2_shared.accesses                   0                       # Total TLB (inst and data) accesses (Count)
system.cpu.mmu.stage2_dtb.readHits                  0                       # Read hits (Count)
system.cpu.mmu.stage2_dtb.readMisses                0                       # Read misses (Count)
system.cpu.mmu.stage2_dtb.writeHits                 0                       # Write hits (Count)
system.cpu.mmu.stage2_dtb.writeMisses               0                       # Write misses (Count)
system.cpu.mmu.stage2_dtb.inserts                   0                       # Number of times an entry is inserted into the TLB (Count)
system.cpu.mmu.stage2_dtb.flushTlb                  0                       # Number of times complete TLB was flushed (Count)
system.cpu.mmu.stage2_dtb.flushTlbMva               0                       # Number of times TLB was flushed by MVA (Count)
system.cpu.mmu.stage2_dtb.flushTlbMvaAsid            0                       # Number of times TLB was flushed by MVA & ASID (Count)
system.cpu.mmu.stage2_dtb.flushTlbAsid              0                       # Number of times TLB was flushed by ASID (Count)
system.cpu.mmu.stage2_dtb.flushedEntries            0                       # Number of entries that have been flushed from TLB (Count)
system.cpu.mmu.stage2_dtb.readAccesses              0                       # Read accesses (Count)
system.cpu.mmu.stage2_dtb.writeAccesses             0                       # Write accesses (Count)
system.cpu.mmu.stage2_dtb.hits                      0                       # Total TLB (inst and data) hits (Count)
system.cpu.mmu.stage2_dtb.misses                    0                       # Total TLB (inst and data) misses (Count)
system.cpu.mmu.stage2_dtb.accesses                  0                       # Total TLB (inst and data) accesses (Count)
system.cpu.mmu.stage2_dtb_walker.walks              0                       # Table walker walks requested (Count)
system.cpu.mmu.stage2_dtb_walker.requestOrigin_Requested::Data            0                       # Table walker requests started/completed, data/inst (Count)
system.cpu.mmu.stage2_dtb_walker.requestOrigin_Requested::Inst            0                       # Table walker requests started/completed, data/inst (Count)
system.cpu.mmu.stage2_dtb_walker.requestOrigin_Requested::total            0                       # Table walker requests started/completed, data/inst (Count)
system.cpu.mmu.stage2_dtb_walker.requestOrigin_Completed::Data            0                       # Table walker requests started/completed, data/inst (Count)
system.cpu.mmu.stage2_dtb_walker.requestOrigin_Completed::Inst            0                       # Table walker requests started/completed, data/inst (Count)
system.cpu.mmu.stage2_dtb_walker.requestOrigin_Completed::total            0                       # Table walker requests started/completed, data/inst (Count)
system.cpu.mmu.stage2_dtb_walker.requestOrigin::total            0                       # Table walker requests started/completed, data/inst (Count)
system.cpu.mmu.stage2_dtb_walker.power_state.pwrStateResidencyTicks::UNDEFINED 478001905570                       # Cumulative time (in ticks) in various power states (Tick)
system.cpu.mmu.stage2_itb.instHits                  0                       # Inst hits (Count)
system.cpu.mmu.stage2_itb.instMisses                0                       # Inst misses (Count)
system.cpu.mmu.stage2_itb.inserts                   0                       # Number of times an entry is inserted into the TLB (Count)
system.cpu.mmu.stage2_itb.flushTlb                  0                       # Number of times complete TLB was flushed (Count)
system.cpu.mmu.stage2_itb.flushTlbMva               0                       # Number of times TLB was flushed by MVA (Count)
system.cpu.mmu.stage2_itb.flushTlbMvaAsid            0                       # Number of times TLB was flushed by MVA & ASID (Count)
system.cpu.mmu.stage2_itb.flushTlbAsid              0                       # Number of times TLB was flushed by ASID (Count)
system.cpu.mmu.stage2_itb.flushedEntries            0                       # Number of entries that have been flushed from TLB (Count)
system.cpu.mmu.stage2_itb.instAccesses              0                       # Inst accesses (Count)
system.cpu.mmu.stage2_itb.hits                      0                       # Total TLB (inst and data) hits (Count)
system.cpu.mmu.stage2_itb.misses                    0                       # Total TLB (inst and data) misses (Count)
system.cpu.mmu.stage2_itb.accesses                  0                       # Total TLB (inst and data) accesses (Count)
system.cpu.mmu.stage2_itb_walker.walks              0                       # Table walker walks requested (Count)
system.cpu.mmu.stage2_itb_walker.requestOrigin_Requested::Data            0                       # Table walker requests started/completed, data/inst (Count)
system.cpu.mmu.stage2_itb_walker.requestOrigin_Requested::Inst            0                       # Table walker requests started/completed, data/inst (Count)
system.cpu.mmu.stage2_itb_walker.requestOrigin_Requested::total            0                       # Table walker requests started/completed, data/inst (Count)
system.cpu.mmu.stage2_itb_walker.requestOrigin_Completed::Data            0                       # Table walker requests started/completed, data/inst (Count)
system.cpu.mmu.stage2_itb_walker.requestOrigin_Completed::Inst            0                       # Table walker requests started/completed, data/inst (Count)
system.cpu.mmu.stage2_itb_walker.requestOrigin_Completed::total            0                       # Table walker requests started/completed, data/inst (Count)
system.cpu.mmu.stage2_itb_walker.requestOrigin::total            0                       # Table walker requests started/completed, data/inst (Count)
system.cpu.mmu.stage2_itb_walker.power_state.pwrStateResidencyTicks::UNDEFINED 478001905570                       # Cumulative time (in ticks) in various power states (Tick)
system.cpu.power_state.pwrStateResidencyTicks::ON 478001905570                       # Cumulative time (in ticks) in various power states (Tick)
system.cpu.thread_0.numInsts               1000000000                       # Number of Instructions committed (Count)
system.cpu.thread_0.numOps                 1177827365                       # Number of Ops committed (Count)
system.cpu.thread_0.numMemRefs                      0                       # Number of Memory References (Count)
system.cpu.workload.numSyscalls                    13                       # Number of system calls (Count)
system.cpu_clk_domain.clock                       278                       # Clock period in ticks (Tick)
system.cpu_clk_domain.voltage_domain.voltage            1                       # Voltage in Volts (Volt)
system.l2bus.transDist::ReadResp              1519204                       # Transaction distribution (Count)
system.l2bus.transDist::WritebackDirty        1048836                       # Transaction distribution (Count)
system.l2bus.transDist::CleanEvict            3004918                       # Transaction distribution (Count)
system.l2bus.transDist::ReadExReq              524530                       # Transaction distribution (Count)
system.l2bus.transDist::ReadExResp             524530                       # Transaction distribution (Count)
system.l2bus.transDist::ReadSharedReq         1519204                       # Transaction distribution (Count)
system.l2bus.pktCount_system.cpu.icache.mem_side_port::system.l2cache.cpu_side_port          783                       # Packet count per connected requestor and responder (Count)
system.l2bus.pktCount_system.cpu.dcache.mem_side_port::system.l2cache.cpu_side_port      6129547                       # Packet count per connected requestor and responder (Count)
system.l2bus.pktCount::total                  6130330                       # Packet count per connected requestor and responder (Count)
system.l2bus.pktSize_system.cpu.icache.mem_side_port::system.l2cache.cpu_side_port        24384                       # Cumulative packet size per connected requestor and responder (Byte)
system.l2bus.pktSize_system.cpu.dcache.mem_side_port::system.l2cache.cpu_side_port    164337408                       # Cumulative packet size per connected requestor and responder (Byte)
system.l2bus.pktSize::total                 164361792                       # Cumulative packet size per connected requestor and responder (Byte)
system.l2bus.snoops                           2010892                       # Total snoops (Count)
system.l2bus.snoopTraffic                    33562688                       # Total snoop traffic (Byte)
system.l2bus.snoopFanout::samples             4054626                       # Request fanout histogram (Count)
system.l2bus.snoopFanout::mean               0.000145                       # Request fanout histogram (Count)
system.l2bus.snoopFanout::stdev              0.012042                       # Request fanout histogram (Count)
system.l2bus.snoopFanout::underflows                0      0.00%      0.00% # Request fanout histogram (Count)
system.l2bus.snoopFanout::0                   4054038     99.99%     99.99% # Request fanout histogram (Count)
system.l2bus.snoopFanout::1                       588      0.01%    100.00% # Request fanout histogram (Count)
system.l2bus.snoopFanout::2                         0      0.00%    100.00% # Request fanout histogram (Count)
system.l2bus.snoopFanout::overflows                 0      0.00%    100.00% # Request fanout histogram (Count)
system.l2bus.snoopFanout::min_value                 0                       # Request fanout histogram (Count)
system.l2bus.snoopFanout::max_value                 1                       # Request fanout histogram (Count)
system.l2bus.snoopFanout::total               4054626                       # Request fanout histogram (Count)
system.l2bus.power_state.pwrStateResidencyTicks::UNDEFINED 478001905570                       # Cumulative time (in ticks) in various power states (Tick)
system.l2bus.reqLayer0.occupancy           3718834698                       # Layer occupancy (ticks) (Tick)
system.l2bus.reqLayer0.utilization                0.0                       # Layer utilization (Ratio)
system.l2bus.respLayer0.occupancy              571500                       # Layer occupancy (ticks) (Tick)
system.l2bus.respLayer0.utilization               0.0                       # Layer utilization (Ratio)
system.l2bus.respLayer1.occupancy          3065036486                       # Layer occupancy (ticks) (Tick)
system.l2bus.respLayer1.utilization               0.0                       # Layer utilization (Ratio)
system.l2bus.snoop_filter.totRequests         4086596                       # Total number of requests made to the snoop filter. (Count)
system.l2bus.snoop_filter.hitSingleRequests      2042862                       # Number of requests hitting in the snoop filter with a single holder of the requested data. (Count)
system.l2bus.snoop_filter.hitMultiRequests           39                       # Number of requests hitting in the snoop filter with multiple (>1) holders of the requested data. (Count)
system.l2bus.snoop_filter.totSnoops               549                       # Total number of snoops made to the snoop filter. (Count)
system.l2bus.snoop_filter.hitSingleSnoops          549                       # Number of snoops hitting in the snoop filter with a single holder of the requested data. (Count)
system.l2bus.snoop_filter.hitMultiSnoops            0                       # Number of snoops hitting in the snoop filter with multiple (>1) holders of the requested data. (Count)
system.l2cache.demandHits::cpu.inst                16                       # number of demand (read+write) hits (Count)
system.l2cache.demandHits::cpu.data               104                       # number of demand (read+write) hits (Count)
system.l2cache.demandHits::total                  120                       # number of demand (read+write) hits (Count)
system.l2cache.overallHits::cpu.inst               16                       # number of overall hits (Count)
system.l2cache.overallHits::cpu.data              104                       # number of overall hits (Count)
system.l2cache.overallHits::total                 120                       # number of overall hits (Count)
system.l2cache.demandMisses::cpu.inst             365                       # number of demand (read+write) misses (Count)
system.l2cache.demandMisses::cpu.data         2043249                       # number of demand (read+write) misses (Count)
system.l2cache.demandMisses::total            2043614                       # number of demand (read+write) misses (Count)
system.l2cache.overallMisses::cpu.inst            365                       # number of overall misses (Count)
system.l2cache.overallMisses::cpu.data        2043249                       # number of overall misses (Count)
system.l2cache.overallMisses::total           2043614                       # number of overall misses (Count)
system.l2cache.demandMissLatency::cpu.inst     25589218                       # number of demand (read+write) miss ticks (Tick)
system.l2cache.demandMissLatency::cpu.data 174553620116                       # number of demand (read+write) miss ticks (Tick)
system.l2cache.demandMissLatency::total  174579209334                       # number of demand (read+write) miss ticks (Tick)
system.l2cache.overallMissLatency::cpu.inst     25589218                       # number of overall miss ticks (Tick)
system.l2cache.overallMissLatency::cpu.data 174553620116                       # number of overall miss ticks (Tick)
system.l2cache.overallMissLatency::total 174579209334                       # number of overall miss ticks (Tick)
system.l2cache.demandAccesses::cpu.inst           381                       # number of demand (read+write) accesses (Count)
system.l2cache.demandAccesses::cpu.data       2043353                       # number of demand (read+write) accesses (Count)
system.l2cache.demandAccesses::total          2043734                       # number of demand (read+write) accesses (Count)
system.l2cache.overallAccesses::cpu.inst          381                       # number of overall (read+write) accesses (Count)
system.l2cache.overallAccesses::cpu.data      2043353                       # number of overall (read+write) accesses (Count)
system.l2cache.overallAccesses::total         2043734                       # number of overall (read+write) accesses (Count)
system.l2cache.demandMissRate::cpu.inst      0.958005                       # miss rate for demand accesses (Ratio)
system.l2cache.demandMissRate::cpu.data      0.999949                       # miss rate for demand accesses (Ratio)
system.l2cache.demandMissRate::total         0.999941                       # miss rate for demand accesses (Ratio)
system.l2cache.overallMissRate::cpu.inst     0.958005                       # miss rate for overall accesses (Ratio)
system.l2cache.overallMissRate::cpu.data     0.999949                       # miss rate for overall accesses (Ratio)
system.l2cache.overallMissRate::total        0.999941                       # miss rate for overall accesses (Ratio)
system.l2cache.demandAvgMissLatency::cpu.inst 70107.446575                       # average overall miss latency in ticks ((Tick/Count))
system.l2cache.demandAvgMissLatency::cpu.data 85429.441109                       # average overall miss latency in ticks ((Tick/Count))
system.l2cache.demandAvgMissLatency::total 85426.704521                       # average overall miss latency in ticks ((Tick/Count))
system.l2cache.overallAvgMissLatency::cpu.inst 70107.446575                       # average overall miss latency ((Tick/Count))
system.l2cache.overallAvgMissLatency::cpu.data 85429.441109                       # average overall miss latency ((Tick/Count))
system.l2cache.overallAvgMissLatency::total 85426.704521                       # average overall miss latency ((Tick/Count))
system.l2cache.blockedCycles::no_mshrs              0                       # number of cycles access was blocked (Cycle)
system.l2cache.blockedCycles::no_targets            0                       # number of cycles access was blocked (Cycle)
system.l2cache.blockedCauses::no_mshrs              0                       # number of times access was blocked (Count)
system.l2cache.blockedCauses::no_targets            0                       # number of times access was blocked (Count)
system.l2cache.avgBlocked::no_mshrs               nan                       # average number of cycles each access was blocked ((Cycle/Count))
system.l2cache.avgBlocked::no_targets             nan                       # average number of cycles each access was blocked ((Cycle/Count))
system.l2cache.writebacks::writebacks          524417                       # number of writebacks (Count)
system.l2cache.writebacks::total               524417                       # number of writebacks (Count)
system.l2cache.demandMshrHits::cpu.data            14                       # number of demand (read+write) MSHR hits (Count)
system.l2cache.demandMshrHits::total               14                       # number of demand (read+write) MSHR hits (Count)
system.l2cache.overallMshrHits::cpu.data           14                       # number of overall MSHR hits (Count)
system.l2cache.overallMshrHits::total              14                       # number of overall MSHR hits (Count)
system.l2cache.demandMshrMisses::cpu.inst          365                       # number of demand (read+write) MSHR misses (Count)
system.l2cache.demandMshrMisses::cpu.data      2043235                       # number of demand (read+write) MSHR misses (Count)
system.l2cache.demandMshrMisses::total        2043600                       # number of demand (read+write) MSHR misses (Count)
system.l2cache.overallMshrMisses::cpu.inst          365                       # number of overall MSHR misses (Count)
system.l2cache.overallMshrMisses::cpu.data      2043235                       # number of overall MSHR misses (Count)
system.l2cache.overallMshrMisses::total       2043600                       # number of overall MSHR misses (Count)
system.l2cache.demandMshrMissLatency::cpu.inst     21939218                       # number of demand (read+write) MSHR miss ticks (Tick)
system.l2cache.demandMshrMissLatency::cpu.data 154120424314                       # number of demand (read+write) MSHR miss ticks (Tick)
system.l2cache.demandMshrMissLatency::total 154142363532                       # number of demand (read+write) MSHR miss ticks (Tick)
system.l2cache.overallMshrMissLatency::cpu.inst     21939218                       # number of overall MSHR miss ticks (Tick)
system.l2cache.overallMshrMissLatency::cpu.data 154120424314                       # number of overall MSHR miss ticks (Tick)
system.l2cache.overallMshrMissLatency::total 154142363532                       # number of overall MSHR miss ticks (Tick)
system.l2cache.demandMshrMissRate::cpu.inst     0.958005                       # mshr miss ratio for demand accesses (Ratio)
system.l2cache.demandMshrMissRate::cpu.data     0.999942                       # mshr miss ratio for demand accesses (Ratio)
system.l2cache.demandMshrMissRate::total     0.999934                       # mshr miss ratio for demand accesses (Ratio)
system.l2cache.overallMshrMissRate::cpu.inst     0.958005                       # mshr miss ratio for overall accesses (Ratio)
system.l2cache.overallMshrMissRate::cpu.data     0.999942                       # mshr miss ratio for overall accesses (Ratio)
system.l2cache.overallMshrMissRate::total     0.999934                       # mshr miss ratio for overall accesses (Ratio)
system.l2cache.demandAvgMshrMissLatency::cpu.inst 60107.446575                       # average overall mshr miss latency ((Tick/Count))
system.l2cache.demandAvgMshrMissLatency::cpu.data 75429.612509                       # average overall mshr miss latency ((Tick/Count))
system.l2cache.demandAvgMshrMissLatency::total 75426.875872                       # average overall mshr miss latency ((Tick/Count))
system.l2cache.overallAvgMshrMissLatency::cpu.inst 60107.446575                       # average overall mshr miss latency ((Tick/Count))
system.l2cache.overallAvgMshrMissLatency::cpu.data 75429.612509                       # average overall mshr miss latency ((Tick/Count))
system.l2cache.overallAvgMshrMissLatency::total 75426.875872                       # average overall mshr miss latency ((Tick/Count))
system.l2cache.replacements                   2010892                       # number of replacements (Count)
system.l2cache.CleanEvict.mshrMisses::writebacks            1                       # number of CleanEvict MSHR misses (Count)
system.l2cache.CleanEvict.mshrMisses::total            1                       # number of CleanEvict MSHR misses (Count)
system.l2cache.CleanEvict.mshrMissRate::writebacks          inf                       # mshr miss rate for CleanEvict accesses (Ratio)
system.l2cache.CleanEvict.mshrMissRate::total          inf                       # mshr miss rate for CleanEvict accesses (Ratio)
system.l2cache.ReadExReq.misses::cpu.data       524530                       # number of ReadExReq misses (Count)
system.l2cache.ReadExReq.misses::total         524530                       # number of ReadExReq misses (Count)
system.l2cache.ReadExReq.missLatency::cpu.data  38001880938                       # number of ReadExReq miss ticks (Tick)
system.l2cache.ReadExReq.missLatency::total  38001880938                       # number of ReadExReq miss ticks (Tick)
system.l2cache.ReadExReq.accesses::cpu.data       524530                       # number of ReadExReq accesses(hits+misses) (Count)
system.l2cache.ReadExReq.accesses::total       524530                       # number of ReadExReq accesses(hits+misses) (Count)
system.l2cache.ReadExReq.missRate::cpu.data            1                       # miss rate for ReadExReq accesses (Ratio)
system.l2cache.ReadExReq.missRate::total            1                       # miss rate for ReadExReq accesses (Ratio)
system.l2cache.ReadExReq.avgMissLatency::cpu.data 72449.394578                       # average ReadExReq miss latency ((Tick/Count))
system.l2cache.ReadExReq.avgMissLatency::total 72449.394578                       # average ReadExReq miss latency ((Tick/Count))
system.l2cache.ReadExReq.mshrMisses::cpu.data       524530                       # number of ReadExReq MSHR misses (Count)
system.l2cache.ReadExReq.mshrMisses::total       524530                       # number of ReadExReq MSHR misses (Count)
system.l2cache.ReadExReq.mshrMissLatency::cpu.data  32756580938                       # number of ReadExReq MSHR miss ticks (Tick)
system.l2cache.ReadExReq.mshrMissLatency::total  32756580938                       # number of ReadExReq MSHR miss ticks (Tick)
system.l2cache.ReadExReq.mshrMissRate::cpu.data            1                       # mshr miss rate for ReadExReq accesses (Ratio)
system.l2cache.ReadExReq.mshrMissRate::total            1                       # mshr miss rate for ReadExReq accesses (Ratio)
system.l2cache.ReadExReq.avgMshrMissLatency::cpu.data 62449.394578                       # average ReadExReq mshr miss latency ((Tick/Count))
system.l2cache.ReadExReq.avgMshrMissLatency::total 62449.394578                       # average ReadExReq mshr miss latency ((Tick/Count))
system.l2cache.ReadSharedReq.hits::cpu.inst           16                       # number of ReadSharedReq hits (Count)
system.l2cache.ReadSharedReq.hits::cpu.data          104                       # number of ReadSharedReq hits (Count)
system.l2cache.ReadSharedReq.hits::total          120                       # number of ReadSharedReq hits (Count)
system.l2cache.ReadSharedReq.misses::cpu.inst          365                       # number of ReadSharedReq misses (Count)
system.l2cache.ReadSharedReq.misses::cpu.data      1518719                       # number of ReadSharedReq misses (Count)
system.l2cache.ReadSharedReq.misses::total      1519084                       # number of ReadSharedReq misses (Count)
system.l2cache.ReadSharedReq.missLatency::cpu.inst     25589218                       # number of ReadSharedReq miss ticks (Tick)
system.l2cache.ReadSharedReq.missLatency::cpu.data 136551739178                       # number of ReadSharedReq miss ticks (Tick)
system.l2cache.ReadSharedReq.missLatency::total 136577328396                       # number of ReadSharedReq miss ticks (Tick)
system.l2cache.ReadSharedReq.accesses::cpu.inst          381                       # number of ReadSharedReq accesses(hits+misses) (Count)
system.l2cache.ReadSharedReq.accesses::cpu.data      1518823                       # number of ReadSharedReq accesses(hits+misses) (Count)
system.l2cache.ReadSharedReq.accesses::total      1519204                       # number of ReadSharedReq accesses(hits+misses) (Count)
system.l2cache.ReadSharedReq.missRate::cpu.inst     0.958005                       # miss rate for ReadSharedReq accesses (Ratio)
system.l2cache.ReadSharedReq.missRate::cpu.data     0.999932                       # miss rate for ReadSharedReq accesses (Ratio)
system.l2cache.ReadSharedReq.missRate::total     0.999921                       # miss rate for ReadSharedReq accesses (Ratio)
system.l2cache.ReadSharedReq.avgMissLatency::cpu.inst 70107.446575                       # average ReadSharedReq miss latency ((Tick/Count))
system.l2cache.ReadSharedReq.avgMissLatency::cpu.data 89912.445408                       # average ReadSharedReq miss latency ((Tick/Count))
system.l2cache.ReadSharedReq.avgMissLatency::total 89907.686735                       # average ReadSharedReq miss latency ((Tick/Count))
system.l2cache.ReadSharedReq.mshrHits::cpu.data           14                       # number of ReadSharedReq MSHR hits (Count)
system.l2cache.ReadSharedReq.mshrHits::total           14                       # number of ReadSharedReq MSHR hits (Count)
system.l2cache.ReadSharedReq.mshrMisses::cpu.inst          365                       # number of ReadSharedReq MSHR misses (Count)
system.l2cache.ReadSharedReq.mshrMisses::cpu.data      1518705                       # number of ReadSharedReq MSHR misses (Count)
system.l2cache.ReadSharedReq.mshrMisses::total      1519070                       # number of ReadSharedReq MSHR misses (Count)
system.l2cache.ReadSharedReq.mshrMissLatency::cpu.inst     21939218                       # number of ReadSharedReq MSHR miss ticks (Tick)
system.l2cache.ReadSharedReq.mshrMissLatency::cpu.data 121363843376                       # number of ReadSharedReq MSHR miss ticks (Tick)
system.l2cache.ReadSharedReq.mshrMissLatency::total 121385782594                       # number of ReadSharedReq MSHR miss ticks (Tick)
system.l2cache.ReadSharedReq.mshrMissRate::cpu.inst     0.958005                       # mshr miss rate for ReadSharedReq accesses (Ratio)
system.l2cache.ReadSharedReq.mshrMissRate::cpu.data     0.999922                       # mshr miss rate for ReadSharedReq accesses (Ratio)
system.l2cache.ReadSharedReq.mshrMissRate::total     0.999912                       # mshr miss rate for ReadSharedReq accesses (Ratio)
system.l2cache.ReadSharedReq.avgMshrMissLatency::cpu.inst 60107.446575                       # average ReadSharedReq mshr miss latency ((Tick/Count))
system.l2cache.ReadSharedReq.avgMshrMissLatency::cpu.data 79912.717332                       # average ReadSharedReq mshr miss latency ((Tick/Count))
system.l2cache.ReadSharedReq.avgMshrMissLatency::total 79907.958550                       # average ReadSharedReq mshr miss latency ((Tick/Count))
system.l2cache.WritebackDirty.hits::writebacks       524419                       # number of WritebackDirty hits (Count)
system.l2cache.WritebackDirty.hits::total       524419                       # number of WritebackDirty hits (Count)
system.l2cache.WritebackDirty.accesses::writebacks       524419                       # number of WritebackDirty accesses(hits+misses) (Count)
system.l2cache.WritebackDirty.accesses::total       524419                       # number of WritebackDirty accesses(hits+misses) (Count)
system.l2cache.power_state.pwrStateResidencyTicks::UNDEFINED 478001905570                       # Cumulative time (in ticks) in various power states (Tick)
system.l2cache.tags.tagsInUse            32198.603370                       # Average ticks per tags in use ((Tick/Count))
system.l2cache.tags.totalRefs                 4086542                       # Total number of references to valid blocks. (Count)
system.l2cache.tags.sampledRefs               2043660                       # Sample count of references to valid blocks. (Count)
system.l2cache.tags.avgRefs                  1.999619                       # Average number of references to valid blocks. ((Count/Count))
system.l2cache.tags.warmupTick                  71500                       # The tick when the warmup percentage was hit. (Tick)
system.l2cache.tags.occupancies::writebacks     0.285615                       # Average occupied blocks per tick, per requestor ((Count/Tick))
system.l2cache.tags.occupancies::cpu.inst    12.669912                       # Average occupied blocks per tick, per requestor ((Count/Tick))
system.l2cache.tags.occupancies::cpu.data 32185.647843                       # Average occupied blocks per tick, per requestor ((Count/Tick))
system.l2cache.tags.avgOccs::writebacks      0.000009                       # Average percentage of cache occupancy ((Ratio/Tick))
system.l2cache.tags.avgOccs::cpu.inst        0.000387                       # Average percentage of cache occupancy ((Ratio/Tick))
system.l2cache.tags.avgOccs::cpu.data        0.982228                       # Average percentage of cache occupancy ((Ratio/Tick))
system.l2cache.tags.avgOccs::total           0.982623                       # Average percentage of cache occupancy ((Ratio/Tick))
system.l2cache.tags.occupanciesTaskId::1024        32768                       # Occupied blocks per task id (Count)
system.l2cache.tags.ageTaskId_1024::0              70                       # Occupied blocks per task id, per block age (Count)
system.l2cache.tags.ageTaskId_1024::1             186                       # Occupied blocks per task id, per block age (Count)
system.l2cache.tags.ageTaskId_1024::2             256                       # Occupied blocks per task id, per block age (Count)
system.l2cache.tags.ageTaskId_1024::3            1792                       # Occupied blocks per task id, per block age (Count)
system.l2cache.tags.ageTaskId_1024::4           30464                       # Occupied blocks per task id, per block age (Count)
system.l2cache.tags.ratioOccsTaskId::1024            1                       # Ratio of occupied blocks and all blocks, per task id (Ratio)
system.l2cache.tags.tagAccesses              34736116                       # Number of tag accesses (Count)
system.l2cache.tags.dataAccesses             34736116                       # Number of data accesses (Count)
system.l2cache.tags.power_state.pwrStateResidencyTicks::UNDEFINED 478001905570                       # Cumulative time (in ticks) in various power states (Tick)
system.mem_ctrl.avgPriority_writebacks::samples    524417.00                       # Average QoS priority value for accepted requests (Count)
system.mem_ctrl.avgPriority_cpu.inst::samples       365.00                       # Average QoS priority value for accepted requests (Count)
system.mem_ctrl.avgPriority_cpu.data::samples   2043235.00                       # Average QoS priority value for accepted requests (Count)
system.mem_ctrl.priorityMinLatency       0.000000017492                       # per QoS priority minimum request to response latency (Second)
system.mem_ctrl.priorityMaxLatency       0.103421082812                       # per QoS priority maximum request to response latency (Second)
system.mem_ctrl.numReadWriteTurnArounds         29137                       # Number of turnarounds from READ to WRITE (Count)
system.mem_ctrl.numWriteReadTurnArounds         29137                       # Number of turnarounds from WRITE to READ (Count)
system.mem_ctrl.numStayReadState              4734047                       # Number of times bus staying in READ state (Count)
system.mem_ctrl.numStayWriteState              495275                       # Number of times bus staying in WRITE state (Count)
system.mem_ctrl.readReqs                      2043600                       # Number of read requests accepted (Count)
system.mem_ctrl.writeReqs                      524417                       # Number of write requests accepted (Count)
system.mem_ctrl.readBursts                    2043600                       # Number of controller read bursts, including those serviced by the write queue (Count)
system.mem_ctrl.writeBursts                    524417                       # Number of controller write bursts, including those merged in the write queue (Count)
system.mem_ctrl.servicedByWrQ                       0                       # Number of controller read bursts serviced by the write queue (Count)
system.mem_ctrl.mergedWrBursts                      0                       # Number of controller write bursts merged with an existing one (Count)
system.mem_ctrl.neitherReadNorWriteReqs             0                       # Number of requests that are neither read nor write (Count)
system.mem_ctrl.avgRdQLen                        1.00                       # Average read queue length when enqueuing ((Count/Tick))
system.mem_ctrl.avgWrQLen                       54.58                       # Average write queue length when enqueuing ((Count/Tick))
system.mem_ctrl.numRdRetry                          0                       # Number of times read queue was full causing retry (Count)
system.mem_ctrl.numWrRetry                          0                       # Number of times write queue was full causing retry (Count)
system.mem_ctrl.readPktSize::0                      0                       # Read request sizes (log2) (Count)
system.mem_ctrl.readPktSize::1                      0                       # Read request sizes (log2) (Count)
system.mem_ctrl.readPktSize::2                      0                       # Read request sizes (log2) (Count)
system.mem_ctrl.readPktSize::3                      0                       # Read request sizes (log2) (Count)
system.mem_ctrl.readPktSize::4                      0                       # Read request sizes (log2) (Count)
system.mem_ctrl.readPktSize::5                      0                       # Read request sizes (log2) (Count)
[...]
system.mem_ctrl.dram.perBankRdBursts::9         63850                       # Per bank write bursts (Count)
system.mem_ctrl.dram.perBankRdBursts::10        63816                       # Per bank write bursts (Count)
system.mem_ctrl.dram.perBankRdBursts::11        63807                       # Per bank write bursts (Count)
system.mem_ctrl.dram.perBankRdBursts::12        63791                       # Per bank write bursts (Count)
system.mem_ctrl.dram.perBankRdBursts::13        63818                       # Per bank write bursts (Count)
system.mem_ctrl.dram.perBankRdBursts::14        63801                       # Per bank write bursts (Count)
system.mem_ctrl.dram.perBankRdBursts::15        63790                       # Per bank write bursts (Count)
system.mem_ctrl.dram.perBankRdBursts::16        63784                       # Per bank write bursts (Count)
system.mem_ctrl.dram.perBankRdBursts::17        63784                       # Per bank write bursts (Count)
system.mem_ctrl.dram.perBankRdBursts::18        63788                       # Per bank write bursts (Count)
system.mem_ctrl.dram.perBankRdBursts::19        63785                       # Per bank write bursts (Count)
system.mem_ctrl.dram.perBankRdBursts::20        63792                       # Per bank write bursts (Count)
system.mem_ctrl.dram.perBankRdBursts::21        63784                       # Per bank write bursts (Count)
system.mem_ctrl.dram.perBankRdBursts::22        63784                       # Per bank write bursts (Count)
system.mem_ctrl.dram.perBankRdBursts::23        63784                       # Per bank write bursts (Count)
system.mem_ctrl.dram.perBankRdBursts::24        63784                       # Per bank write bursts (Count)
system.mem_ctrl.dram.perBankRdBursts::25        63784                       # Per bank write bursts (Count)
system.mem_ctrl.dram.perBankRdBursts::26        63787                       # Per bank write bursts (Count)
system.mem_ctrl.dram.perBankRdBursts::27        63785                       # Per bank write bursts (Count)
system.mem_ctrl.dram.perBankRdBursts::28        63784                       # Per bank write bursts (Count)
system.mem_ctrl.dram.perBankRdBursts::29        63822                       # Per bank write bursts (Count)
system.mem_ctrl.dram.perBankRdBursts::30        63798                       # Per bank write bursts (Count)
system.mem_ctrl.dram.perBankRdBursts::31        63812                       # Per bank write bursts (Count)
system.mem_ctrl.dram.perBankWrBursts::0         16394                       # Per bank write bursts (Count)
system.mem_ctrl.dram.perBankWrBursts::1         16386                       # Per bank write bursts (Count)
system.mem_ctrl.dram.perBankWrBursts::2         16513                       # Per bank write bursts (Count)
system.mem_ctrl.dram.perBankWrBursts::3         16262                       # Per bank write bursts (Count)
system.mem_ctrl.dram.perBankWrBursts::4         16384                       # Per bank write bursts (Count)
system.mem_ctrl.dram.perBankWrBursts::5         16384                       # Per bank write bursts (Count)
system.mem_ctrl.dram.perBankWrBursts::6         16384                       # Per bank write bursts (Count)
system.mem_ctrl.dram.perBankWrBursts::7         16384                       # Per bank write bursts (Count)
system.mem_ctrl.dram.perBankWrBursts::8         16384                       # Per bank write bursts (Count)
system.mem_ctrl.dram.perBankWrBursts::9         16384                       # Per bank write bursts (Count)
system.mem_ctrl.dram.perBankWrBursts::10        16384                       # Per bank write bursts (Count)
system.mem_ctrl.dram.perBankWrBursts::11        16384                       # Per bank write bursts (Count)
system.mem_ctrl.dram.perBankWrBursts::12        16384                       # Per bank write bursts (Count)
system.mem_ctrl.dram.perBankWrBursts::13        16384                       # Per bank write bursts (Count)
system.mem_ctrl.dram.perBankWrBursts::14        16384                       # Per bank write bursts (Count)
system.mem_ctrl.dram.perBankWrBursts::15        16384                       # Per bank write bursts (Count)
system.mem_ctrl.dram.perBankWrBursts::16        16384                       # Per bank write bursts (Count)
system.mem_ctrl.dram.perBankWrBursts::17        16384                       # Per bank write bursts (Count)
system.mem_ctrl.dram.perBankWrBursts::18        16384                       # Per bank write bursts (Count)
system.mem_ctrl.dram.perBankWrBursts::19        16384                       # Per bank write bursts (Count)
system.mem_ctrl.dram.perBankWrBursts::20        16384                       # Per bank write bursts (Count)
system.mem_ctrl.dram.perBankWrBursts::21        16384                       # Per bank write bursts (Count)
system.mem_ctrl.dram.perBankWrBursts::22        16384                       # Per bank write bursts (Count)
system.mem_ctrl.dram.perBankWrBursts::23        16384                       # Per bank write bursts (Count)
system.mem_ctrl.dram.perBankWrBursts::24        16384                       # Per bank write bursts (Count)
system.mem_ctrl.dram.perBankWrBursts::25        16384                       # Per bank write bursts (Count)
system.mem_ctrl.dram.perBankWrBursts::26        16384                       # Per bank write bursts (Count)
system.mem_ctrl.dram.perBankWrBursts::27        16384                       # Per bank write bursts (Count)
system.mem_ctrl.dram.perBankWrBursts::28        16383                       # Per bank write bursts (Count)
system.mem_ctrl.dram.perBankWrBursts::29        16412                       # Per bank write bursts (Count)
system.mem_ctrl.dram.perBankWrBursts::30        16397                       # Per bank write bursts (Count)
system.mem_ctrl.dram.perBankWrBursts::31        16393                       # Per bank write bursts (Count)
system.mem_ctrl.dram.totQLat              43922875998                       # Total ticks spent queuing (Tick)
system.mem_ctrl.dram.totBusLat             6809275200                       # Total ticks spent in databus transfers (Tick)
system.mem_ctrl.dram.totMemAccLat         79669527198                       # Total ticks spent from burst creation until serviced by the DRAM (Tick)
system.mem_ctrl.dram.avgQLat                 21492.89                       # Average queueing delay per DRAM burst ((Tick/Count))
system.mem_ctrl.dram.avgBusLat                3332.00                       # Average bus latency per DRAM burst ((Tick/Count))
system.mem_ctrl.dram.avgMemAccLat            38984.89                       # Average memory access latency per DRAM burst ((Tick/Count))
system.mem_ctrl.dram.readRowHits               461948                       # Number of row buffer hits during reads (Count)
system.mem_ctrl.dram.writeRowHits              436643                       # Number of row buffer hits during writes (Count)
system.mem_ctrl.dram.readRowHitRate             22.60                       # Row buffer hit rate for reads (Ratio)
system.mem_ctrl.dram.writeRowHitRate            83.27                       # Row buffer hit rate for writes (Ratio)
system.mem_ctrl.dram.bytesPerActivate::samples      1669333                       # Bytes accessed per row activation (Byte)
system.mem_ctrl.dram.bytesPerActivate::mean    98.450780                       # Bytes accessed per row activation (Byte)
system.mem_ctrl.dram.bytesPerActivate::gmean    73.464486                       # Bytes accessed per row activation (Byte)
system.mem_ctrl.dram.bytesPerActivate::stdev   146.744691                       # Bytes accessed per row activation (Byte)
system.mem_ctrl.dram.bytesPerActivate::0-127      1555306     93.17%     93.17% # Bytes accessed per row activation (Byte)
system.mem_ctrl.dram.bytesPerActivate::128-255        19559      1.17%     94.34% # Bytes accessed per row activation (Byte)
system.mem_ctrl.dram.bytesPerActivate::256-383         7294      0.44%     94.78% # Bytes accessed per row activation (Byte)
system.mem_ctrl.dram.bytesPerActivate::384-511        24715      1.48%     96.26% # Bytes accessed per row activation (Byte)
system.mem_ctrl.dram.bytesPerActivate::512-639        10269      0.62%     96.87% # Bytes accessed per row activation (Byte)
system.mem_ctrl.dram.bytesPerActivate::640-767        21023      1.26%     98.13% # Bytes accessed per row activation (Byte)
system.mem_ctrl.dram.bytesPerActivate::768-895         8926      0.53%     98.67% # Bytes accessed per row activation (Byte)
system.mem_ctrl.dram.bytesPerActivate::896-1023        14308      0.86%     99.52% # Bytes accessed per row activation (Byte)
system.mem_ctrl.dram.bytesPerActivate::1024-1151         7933      0.48%    100.00% # Bytes accessed per row activation (Byte)
system.mem_ctrl.dram.bytesPerActivate::total      1669333                       # Bytes accessed per row activation (Byte)
system.mem_ctrl.dram.bytesRead              130790400                       # Total bytes read (Byte)
system.mem_ctrl.dram.bytesWritten            33558784                       # Total bytes written (Byte)
system.mem_ctrl.dram.avgRdBW               273.618993                       # Average DRAM read bandwidth in MiBytes/s ((Byte/Second))
system.mem_ctrl.dram.avgWrBW                70.206381                       # Average DRAM write bandwidth in MiBytes/s ((Byte/Second))
system.mem_ctrl.dram.peakBW                  19207.00                       # Theoretical peak bandwidth in MiByte/s ((Byte/Second))
system.mem_ctrl.dram.busUtil                     1.79                       # Data bus utilization in percentage (Ratio)
system.mem_ctrl.dram.busUtilRead                 1.42                       # Data bus utilization in percentage for reads (Ratio)
system.mem_ctrl.dram.busUtilWrite                0.37                       # Data bus utilization in percentage for writes (Ratio)
system.mem_ctrl.dram.pageHitRate                34.99                       # Row buffer hit rate, read and write combined (Ratio)
system.mem_ctrl.dram.power_state.pwrStateResidencyTicks::UNDEFINED 478001905570                       # Cumulative time (in ticks) in various power states (Tick)
system.mem_ctrl.dram.rank0.actEnergy     2605938727.391694                       # Energy for activate commands per rank (pJ) (Joule)
system.mem_ctrl.dram.rank0.preEnergy     3464495787.144420                       # Energy for precharge commands per rank (pJ) (Joule)
system.mem_ctrl.dram.rank0.readEnergy    4302889627.410420                       # Energy for read commands per rank (pJ) (Joule)
system.mem_ctrl.dram.rank0.writeEnergy   985338586.847753                       # Energy for write commands per rank (pJ) (Joule)
system.mem_ctrl.dram.rank0.refreshEnergy 85052488666.598328                       # Energy for refresh commands per rank (pJ) (Joule)
system.mem_ctrl.dram.rank0.actBackEnergy 283198274568.439331                       # Energy for active background per rank (pJ) (Joule)
system.mem_ctrl.dram.rank0.preBackEnergy 94440970031.344360                       # Energy for precharge background per rank (pJ) (Joule)
system.mem_ctrl.dram.rank0.actPowerDownEnergy            0                       # Energy for active power-down per rank (pJ) (Joule)
system.mem_ctrl.dram.rank0.prePowerDownEnergy            0                       # Energy for precharge power-down per rank (pJ) (Joule)
system.mem_ctrl.dram.rank0.selfRefreshEnergy            0                       # Energy for self refresh per rank (pJ) (Joule)
system.mem_ctrl.dram.rank0.totalEnergy   474050395995.229980                       # Total energy per rank (pJ) (Joule)
system.mem_ctrl.dram.rank0.averagePower    991.733277                       # Core power per rank (mW) (Watt)
system.mem_ctrl.dram.rank0.totalIdleTime            0                       # Total Idle time Per DRAM Rank (Tick)
system.mem_ctrl.dram.rank0.pwrStateTime::IDLE 143058141966                       # Time in different power states (Tick)
system.mem_ctrl.dram.rank0.pwrStateTime::REF  21487550000                       # Time in different power states (Tick)
system.mem_ctrl.dram.rank0.pwrStateTime::SREF            0                       # Time in different power states (Tick)
system.mem_ctrl.dram.rank0.pwrStateTime::PRE_PDN            0                       # Time in different power states (Tick)
system.mem_ctrl.dram.rank0.pwrStateTime::ACT 313456213604                       # Time in different power states (Tick)
system.mem_ctrl.dram.rank0.pwrStateTime::ACT_PDN            0                       # Time in different power states (Tick)
system.mem_ctrl.dram.rank1.actEnergy     2600396705.087708                       # Energy for activate commands per rank (pJ) (Joule)
system.mem_ctrl.dram.rank1.preEnergy     3457127739.542787                       # Energy for precharge commands per rank (pJ) (Joule)
system.mem_ctrl.dram.rank1.readEnergy    4293139385.068120                       # Energy for read commands per rank (pJ) (Joule)
system.mem_ctrl.dram.rank1.writeEnergy   985451341.727751                       # Energy for write commands per rank (pJ) (Joule)
system.mem_ctrl.dram.rank1.refreshEnergy 85052488666.598328                       # Energy for refresh commands per rank (pJ) (Joule)
system.mem_ctrl.dram.rank1.actBackEnergy 283055672464.105835                       # Energy for active background per rank (pJ) (Joule)
system.mem_ctrl.dram.rank1.preBackEnergy 94550540009.814529                       # Energy for precharge background per rank (pJ) (Joule)
system.mem_ctrl.dram.rank1.actPowerDownEnergy            0                       # Energy for active power-down per rank (pJ) (Joule)
system.mem_ctrl.dram.rank1.prePowerDownEnergy            0                       # Energy for precharge power-down per rank (pJ) (Joule)
system.mem_ctrl.dram.rank1.selfRefreshEnergy            0                       # Energy for self refresh per rank (pJ) (Joule)
system.mem_ctrl.dram.rank1.totalEnergy   473994816312.004272                       # Total energy per rank (pJ) (Joule)
system.mem_ctrl.dram.rank1.averagePower    991.617001                       # Core power per rank (mW) (Watt)
system.mem_ctrl.dram.rank1.totalIdleTime            0                       # Total Idle time Per DRAM Rank (Tick)
system.mem_ctrl.dram.rank1.pwrStateTime::IDLE 143225428698                       # Time in different power states (Tick)
system.mem_ctrl.dram.rank1.pwrStateTime::REF  21487550000                       # Time in different power states (Tick)
system.mem_ctrl.dram.rank1.pwrStateTime::SREF            0                       # Time in different power states (Tick)
system.mem_ctrl.dram.rank1.pwrStateTime::PRE_PDN            0                       # Time in different power states (Tick)
system.mem_ctrl.dram.rank1.pwrStateTime::ACT 313288926872                       # Time in different power states (Tick)
system.mem_ctrl.dram.rank1.pwrStateTime::ACT_PDN            0                       # Time in different power states (Tick)
system.mem_ctrl.power_state.pwrStateResidencyTicks::UNDEFINED 478001905570                       # Cumulative time (in ticks) in various power states (Tick)
system.membus.transDist::ReadResp             1519070                       # Transaction distribution (Count)
system.membus.transDist::WritebackDirty        524417                       # Transaction distribution (Count)
system.membus.transDist::CleanEvict           1485927                       # Transaction distribution (Count)
system.membus.transDist::ReadExReq             524530                       # Transaction distribution (Count)
system.membus.transDist::ReadExResp            524530                       # Transaction distribution (Count)
system.membus.transDist::ReadSharedReq        1519070                       # Transaction distribution (Count)
system.membus.pktCount_system.l2cache.mem_side_port::system.mem_ctrl.port      6097544                       # Packet count per connected requestor and responder (Count)
system.membus.pktCount::total                 6097544                       # Packet count per connected requestor and responder (Count)
system.membus.pktSize_system.l2cache.mem_side_port::system.mem_ctrl.port    164353088                       # Cumulative packet size per connected requestor and responder (Byte)
system.membus.pktSize::total                164353088                       # Cumulative packet size per connected requestor and responder (Byte)
system.membus.snoops                                0                       # Total snoops (Count)
system.membus.snoopTraffic                          0                       # Total snoop traffic (Byte)
system.membus.snoopFanout::samples            2043600                       # Request fanout histogram (Count)
system.membus.snoopFanout::mean                     0                       # Request fanout histogram (Count)
system.membus.snoopFanout::stdev                    0                       # Request fanout histogram (Count)
system.membus.snoopFanout::underflows               0      0.00%      0.00% # Request fanout histogram (Count)
system.membus.snoopFanout::0                  2043600    100.00%    100.00% # Request fanout histogram (Count)
system.membus.snoopFanout::1                        0      0.00%    100.00% # Request fanout histogram (Count)
system.membus.snoopFanout::overflows                0      0.00%    100.00% # Request fanout histogram (Count)
system.membus.snoopFanout::min_value                0                       # Request fanout histogram (Count)
system.membus.snoopFanout::max_value                0                       # Request fanout histogram (Count)
system.membus.snoopFanout::total              2043600                       # Request fanout histogram (Count)
system.membus.power_state.pwrStateResidencyTicks::UNDEFINED 478001905570                       # Cumulative time (in ticks) in various power states (Tick)
system.membus.reqLayer0.occupancy          3627152606                       # Layer occupancy (ticks) (Tick)
system.membus.reqLayer0.utilization               0.0                       # Layer utilization (Ratio)
system.membus.respLayer0.occupancy         5546276802                       # Layer occupancy (ticks) (Tick)
system.membus.respLayer0.utilization              0.0                       # Layer utilization (Ratio)
system.membus.snoop_filter.totRequests        4053944                       # Total number of requests made to the snoop filter. (Count)
system.membus.snoop_filter.hitSingleRequests      2010344                       # Number of requests hitting in the snoop filter with a single holder of the requested data. (Count)
system.membus.snoop_filter.hitMultiRequests            0                       # Number of requests hitting in the snoop filter with multiple (>1) holders of the requested data. (Count)
system.membus.snoop_filter.totSnoops                0                       # Total number of snoops made to the snoop filter. (Count)
system.membus.snoop_filter.hitSingleSnoops            0                       # Number of snoops hitting in the snoop filter with a single holder of the requested data. (Count)
system.membus.snoop_filter.hitMultiSnoops            0                       # Number of snoops hitting in the snoop filter with multiple (>1) holders of the requested data. (Count)
system.workload.inst.arm                            0                       # number of arm instructions executed (Count)
system.workload.inst.quiesce                        0                       # number of quiesce instructions executed (Count)
system.cpu.idleCycles                       623791376                       # Total number of cycles that the object has spent stopped (Unspecified)
system.cpu.tickCycles                      1095639939                       # Number of cycles that the object actually ticked (Unspecified)

---------- End Simulation Statistics   ----------
