
---------- Begin Simulation Statistics ----------
simSeconds                                   0.389105                       # Number of seconds simulated (Second)
simTicks                                 389105145288                       # Number of ticks simulated (Tick)
finalTick                                389105145288                       # Number of ticks from beginning of simulation (restored from checkpoints and never reset) (Tick)
simFreq                                  1000000000000                       # The number of ticks per simulated second ((Tick/Second))
hostSeconds                                   3190.51                       # Real time elapsed on the host (Second)
hostTickRate                                121956866                       # The number of ticks simulated per host second (ticks/s) ((Tick/Second))
hostMemory                                    2286848                       # Number of bytes of host memory used (Byte)
simInsts                                   1000000001                       # Number of instructions simulated (Count)
simOps                                     1177819171                       # Number of ops (including micro ops) simulated (Count)
hostInstRate                                   313429                       # Simulator instruction rate (inst/s) ((Count/Second))
hostOpRate                                     369163                       # Simulator op (including micro ops) rate (op/s) ((Count/Second))
system.clk_domain.clock                           500                       # Clock period in ticks (Tick)
system.clk_domain.voltage_domain.voltage            1                       # Voltage in Volts (Volt)
system.cpu.numCycles                        699829399                       # Number of cpu cycles simulated (Cycle)
system.cpu.numWorkItemsStarted                      0                       # Number of work items this cpu started (Count)
system.cpu.numWorkItemsCompleted                    0                       # Number of work items this cpu completed (Count)
system.cpu.instsAdded                      1316893915                       # Number of instructions added to the IQ (excludes non-spec) (Count)
system.cpu.nonSpecInstsAdded                      113                       # Number of non-speculative instructions added to the IQ (Count)
system.cpu.instsIssued                     1281587022                       # Number of instructions issued (Count)
system.cpu.squashedInstsIssued                   2350                       # Number of squashed instructions issued (Count)
system.cpu.squashedInstsExamined            139074787                       # Number of squashed instructions iterated over during squash; mainly for profiling (Count)
system.cpu.squashedOperandsExamined         316931223                       # Number of squashed operands that are examined and possibly removed from graph (Count)
system.cpu.squashedNonSpecRemoved                  17                       # Number of squashed non-spec instructions that were removed (Count)
system.cpu.numIssuedDist::samples           699810143                       # Number of insts issued each cycle (Count)
system.cpu.numIssuedDist::mean               1.831335                       # Number of insts issued each cycle (Count)
system.cpu.numIssuedDist::stdev              2.232801                       # Number of insts issued each cycle (Count)
system.cpu.numIssuedDist::underflows                0      0.00%      0.00% # Number of insts issued each cycle (Count)
system.cpu.numIssuedDist::0                 315312078     45.06%     45.06% # Number of insts issued each cycle (Count)
system.cpu.numIssuedDist::1                  80808418     11.55%     56.60% # Number of insts issued each cycle (Count)
system.cpu.numIssuedDist::2                  82360126     11.77%     68.37% # Number of insts issued each cycle (Count)
system.cpu.numIssuedDist::3                  69447106      9.92%     78.30% # Number of insts issued each cycle (Count)
system.cpu.numIssuedDist::4                  50380082      7.20%     85.50% # Number of insts issued each cycle (Count)
system.cpu.numIssuedDist::5                  37849696      5.41%     90.90% # Number of insts issued each cycle (Count)
system.cpu.numIssuedDist::6                  29288316      4.19%     95.09% # Number of insts issued each cycle (Count)
system.cpu.numIssuedDist::7                  13696238      1.96%     97.05% # Number of insts issued each cycle (Count)
system.cpu.numIssuedDist::8                  20668083      2.95%    100.00% # Number of insts issued each cycle (Count)
system.cpu.numIssuedDist::overflows                 0      0.00%    100.00% # Number of insts issued each cycle (Count)
system.cpu.numIssuedDist::min_value                 0                       # Number of insts issued each cycle (Count)
system.cpu.numIssuedDist::max_value                 8                       # Number of insts issued each cycle (Count)
system.cpu.numIssuedDist::total             699810143                       # Number of insts issued each cycle (Count)
system.cpu.statFuBusy::No_OpClass                   0      0.00%      0.00% # attempts to use FU when none available (Count)
system.cpu.statFuBusy::IntAlu                 6529714     86.97%     86.97% # attempts to use FU when none available (Count)
system.cpu.statFuBusy::IntMult                      0      0.00%     86.97% # attempts to use FU when none available (Count)
system.cpu.statFuBusy::IntDiv                       0      0.00%     86.97% # attempts to use FU when none available (Count)
system.cpu.statFuBusy::FloatAdd                     0      0.00%     86.97% # attempts to use FU when none available (Count)
system.cpu.statFuBusy::FloatCmp                     0      0.00%     86.97% # attempts to use FU when none available (Count)
system.cpu.statFuBusy::FloatCvt                     0      0.00%     86.97% # attempts to use FU when none available (Count)
system.cpu.statFuBusy::FloatMult                    0      0.00%     86.97% # attempts to use FU when none available (Count)
system.cpu.statFuBusy::FloatMultAcc                 0      0.00%     86.97% # attempts to use FU when none available (Count)
system.cpu.statFuBusy::FloatDiv                     0      0.00%     86.97% # attempts to use FU when none available (Count)
system.cpu.statFuBusy::FloatMisc                    0      0.00%     86.97% # attempts to use FU when none available (Count)
system.cpu.statFuBusy::FloatSqrt                    0      0.00%     86.97% # attempts to use FU when none available (Count)
system.cpu.statFuBusy::SimdAdd                      0      0.00%     86.97% # attempts to use FU when none available (Count)
system.cpu.statFuBusy::SimdAddAcc                   0      0.00%     86.97% # attempts to use FU when none available (Count)
system.cpu.statFuBusy::SimdAlu                      0      0.00%     86.97% # attempts to use FU when none available (Count)
system.cpu.statFuBusy::SimdCmp                      0      0.00%     86.97% # attempts to use FU when none available (Count)
system.cpu.statFuBusy::SimdCvt                      0      0.00%     86.97% # attempts to use FU when none available (Count)
system.cpu.statFuBusy::SimdMisc                     0      0.00%     86.97% # attempts to use FU when none available (Count)
system.cpu.statFuBusy::SimdMult                     0      0.00%     86.97% # attempts to use FU when none available (Count)
system.cpu.statFuBusy::SimdMultAcc                  0      0.00%     86.97% # attempts to use FU when none available (Count)
system.cpu.statFuBusy::SimdShift                    0      0.00%     86.97% # attempts to use FU when none available (Count)
system.cpu.statFuBusy::SimdShiftAcc                 0      0.00%     86.97% # attempts to use FU when none available (Count)
system.cpu.statFuBusy::SimdDiv                      0      0.00%     86.97% # attempts to use FU when none available (Count)
system.cpu.statFuBusy::SimdSqrt                     0      0.00%     86.97% # attempts to use FU when none available (Count)
system.cpu.statFuBusy::SimdFloatAdd                 0      0.00%     86.97% # attempts to use FU when none available (Count)
system.cpu.statFuBusy::SimdFloatAlu                 0      0.00%     86.97% # attempts to use FU when none available (Count)
system.cpu.statFuBusy::SimdFloatCmp                 0      0.00%     86.97% # attempts to use FU when none available (Count)
system.cpu.statFuBusy::SimdFloatCvt                 0      0.00%     86.97% # attempts to use FU when none available (Count)
system.cpu.statFuBusy::SimdFloatDiv                 0      0.00%     86.97% # attempts to use FU when none available (Count)
system.cpu.statFuBusy::SimdFloatMisc                0      0.00%     86.97% # attempts to use FU when none available (Count)
system.cpu.statFuBusy::SimdFloatMult                0      0.00%     86.97% # attempts to use FU when none available (Count)
system.cpu.statFuBusy::SimdFloatMultAcc             0      0.00%     86.97% # attempts to use FU when none available (Count)
system.cpu.statFuBusy::SimdFloatSqrt                0      0.00%     86.97% # attempts to use FU when none available (Count)
system.cpu.statFuBusy::SimdReduceAdd                0      0.00%     86.97% # attempts to use FU when none available (Count)
system.cpu.statFuBusy::SimdReduceAlu                0      0.00%     86.97% # attempts to use FU when none available (Count)
system.cpu.statFuBusy::SimdReduceCmp                0      0.00%     86.97% # attempts to use FU when none available (Count)
system.cpu.statFuBusy::SimdFloatReduceAdd            0      0.00%     86.97% # attempts to use FU when none available (Count)
system.cpu.statFuBusy::SimdFloatReduceCmp            0      0.00%     86.97% # attempts to use FU when none available (Count)
system.cpu.statFuBusy::SimdAes                      0      0.00%     86.97% # attempts to use FU when none available (Count)
system.cpu.statFuBusy::SimdAesMix                   0      0.00%     86.97% # attempts to use FU when none available (Count)
system.cpu.statFuBusy::SimdSha1Hash                 0      0.00%     86.97% # attempts to use FU when none available (Count)
system.cpu.statFuBusy::SimdSha1Hash2                0      0.00%     86.97% # attempts to use FU when none available (Count)
system.cpu.statFuBusy::SimdSha256Hash               0      0.00%     86.97% # attempts to use FU when none available (Count)
system.cpu.statFuBusy::SimdSha256Hash2              0      0.00%     86.97% # attempts to use FU when none available (Count)
system.cpu.statFuBusy::SimdShaSigma2                0      0.00%     86.97% # attempts to use FU when none available (Count)
system.cpu.statFuBusy::SimdShaSigma3                0      0.00%     86.97% # attempts to use FU when none available (Count)
system.cpu.statFuBusy::SimdPredAlu                  0      0.00%     86.97% # attempts to use FU when none available (Count)
system.cpu.statFuBusy::MemRead                 927112     12.35%     99.32% # attempts to use FU when none available (Count)
system.cpu.statFuBusy::MemWrite                 50953      0.68%    100.00% # attempts to use FU when none available (Count)
system.cpu.statFuBusy::FloatMemRead                 0      0.00%    100.00% # attempts to use FU when none available (Count)
system.cpu.statFuBusy::FloatMemWrite                0      0.00%    100.00% # attempts to use FU when none available (Count)
system.cpu.statFuBusy::IprAccess                    0      0.00%    100.00% # attempts to use FU when none available (Count)
system.cpu.statFuBusy::InstPrefetch                 0      0.00%    100.00% # attempts to use FU when none available (Count)
system.cpu.statIssuedInstType_0::No_OpClass     22598383      1.76%      1.76% # Number of instructions issued per FU type, per thread (Count)
system.cpu.statIssuedInstType_0::IntAlu     970587947     75.73%     77.50% # Number of instructions issued per FU type, per thread (Count)
system.cpu.statIssuedInstType_0::IntMult     24482950      1.91%     79.41% # Number of instructions issued per FU type, per thread (Count)
system.cpu.statIssuedInstType_0::IntDiv             0      0.00%     79.41% # Number of instructions issued per FU type, per thread (Count)
system.cpu.statIssuedInstType_0::FloatAdd            0      0.00%     79.41% # Number of instructions issued per FU type, per thread (Count)
system.cpu.statIssuedInstType_0::FloatCmp            0      0.00%     79.41% # Number of instructions issued per FU type, per thread (Count)
system.cpu.statIssuedInstType_0::FloatCvt            0      0.00%     79.41% # Number of instructions issued per FU type, per thread (Count)
system.cpu.statIssuedInstType_0::FloatMult            0      0.00%     79.41% # Number of instructions issued per FU type, per thread (Count)
system.cpu.statIssuedInstType_0::FloatMultAcc            0      0.00%     79.41% # Number of instructions issued per FU type, per thread (Count)
system.cpu.statIssuedInstType_0::FloatDiv            0      0.00%     79.41% # Number of instructions issued per FU type, per thread (Count)
system.cpu.statIssuedInstType_0::FloatMisc            0      0.00%     79.41% # Number of instructions issued per FU type, per thread (Count)
system.cpu.statIssuedInstType_0::FloatSqrt            0      0.00%     79.41% # Number of instructions issued per FU type, per thread (Count)
system.cpu.statIssuedInstType_0::SimdAdd            0      0.00%     79.41% # Number of instructions issued per FU type, per thread (Count)
system.cpu.statIssuedInstType_0::SimdAddAcc            0      0.00%     79.41% # Number of instructions issued per FU type, per thread (Count)
system.cpu.statIssuedInstType_0::SimdAlu            0      0.00%     79.41% # Number of instructions issued per FU type, per thread (Count)
system.cpu.statIssuedInstType_0::SimdCmp            0      0.00%     79.41% # Number of instructions issued per FU type, per thread (Count)
system.cpu.statIssuedInstType_0::SimdCvt            0      0.00%     79.41% # Number of instructions issued per FU type, per thread (Count)
system.cpu.statIssuedInstType_0::SimdMisc            0      0.00%     79.41% # Number of instructions issued per FU type, per thread (Count)
system.cpu.statIssuedInstType_0::SimdMult            0      0.00%     79.41% # Number of instructions issued per FU type, per thread (Count)
system.cpu.statIssuedInstType_0::SimdMultAcc            0      0.00%     79.41% # Number of instructions issued per FU type, per thread (Count)
system.cpu.statIssuedInstType_0::SimdShift            0      0.00%     79.41% # Number of instructions issued per FU type, per thread (Count)
system.cpu.statIssuedInstType_0::SimdShiftAcc            0      0.00%     79.41% # Number of instructions issued per FU type, per thread (Count)
system.cpu.statIssuedInstType_0::SimdDiv            0      0.00%     79.41% # Number of instructions issued per FU type, per thread (Count)
system.cpu.statIssuedInstType_0::SimdSqrt            0      0.00%     79.41% # Number of instructions issued per FU type, per thread (Count)
system.cpu.statIssuedInstType_0::SimdFloatAdd            0      0.00%     79.41% # Number of instructions issued per FU type, per thread (Count)
system.cpu.statIssuedInstType_0::SimdFloatAlu            0      0.00%     79.41% # Number of instructions issued per FU type, per thread (Count)
system.cpu.statIssuedInstType_0::SimdFloatCmp            0      0.00%     79.41% # Number of instructions issued per FU type, per thread (Count)
system.cpu.statIssuedInstType_0::SimdFloatCvt            0      0.00%     79.41% # Number of instructions issued per FU type, per thread (Count)
system.cpu.statIssuedInstType_0::SimdFloatDiv            0      0.00%     79.41% # Number of instructions issued per FU type, per thread (Count)
system.cpu.statIssuedInstType_0::SimdFloatMisc            0      0.00%     79.41% # Number of instructions issued per FU type, per thread (Count)
system.cpu.statIssuedInstType_0::SimdFloatMult            0      0.00%     79.41% # Number of instructions issued per FU type, per thread (Count)
system.cpu.statIssuedInstType_0::SimdFloatMultAcc            0      0.00%     79.41% # Number of instructions issued per FU type, per thread (Count)
system.cpu.statIssuedInstType_0::SimdFloatSqrt            0      0.00%     79.41% # Number of instructions issued per FU type, per thread (Count)
system.cpu.statIssuedInstType_0::SimdReduceAdd            0      0.00%     79.41% # Number of instructions issued per FU type, per thread (Count)
system.cpu.statIssuedInstType_0::SimdReduceAlu            0      0.00%     79.41% # Number of instructions issued per FU type, per thread (Count)
system.cpu.statIssuedInstType_0::SimdReduceCmp            0      0.00%     79.41% # Number of instructions issued per FU type, per thread (Count)
system.cpu.statIssuedInstType_0::SimdFloatReduceAdd            0      0.00%     79.41% # Number of instructions issued per FU type, per thread (Count)
system.cpu.statIssuedInstType_0::SimdFloatReduceCmp            0      0.00%     79.41% # Number of instructions issued per FU type, per thread (Count)
system.cpu.statIssuedInstType_0::SimdAes            0      0.00%     79.41% # Number of instructions issued per FU type, per thread (Count)
system.cpu.statIssuedInstType_0::SimdAesMix            0      0.00%     79.41% # Number of instructions issued per FU type, per thread (Count)
system.cpu.statIssuedInstType_0::SimdSha1Hash            0      0.00%     79.41% # Number of instructions issued per FU type, per thread (Count)
system.cpu.statIssuedInstType_0::SimdSha1Hash2            0      0.00%     79.41% # Number of instructions issued per FU type, per thread (Count)
system.cpu.statIssuedInstType_0::SimdSha256Hash            0      0.00%     79.41% # Number of instructions issued per FU type, per thread (Count)
system.cpu.statIssuedInstType_0::SimdSha256Hash2            0      0.00%     79.41% # Number of instructions issued per FU type, per thread (Count)
system.cpu.statIssuedInstType_0::SimdShaSigma2            0      0.00%     79.41% # Number of instructions issued per FU type, per thread (Count)
system.cpu.statIssuedInstType_0::SimdShaSigma3            0      0.00%     79.41% # Number of instructions issued per FU type, per thread (Count)
system.cpu.statIssuedInstType_0::SimdPredAlu            0      0.00%     79.41% # Number of instructions issued per FU type, per thread (Count)
system.cpu.statIssuedInstType_0::MemRead    158549111     12.37%     91.78% # Number of instructions issued per FU type, per thread (Count)
system.cpu.statIssuedInstType_0::MemWrite    105368631      8.22%    100.00% # Number of instructions issued per FU type, per thread (Count)
system.cpu.statIssuedInstType_0::FloatMemRead            0      0.00%    100.00% # Number of instructions issued per FU type, per thread (Count)
system.cpu.statIssuedInstType_0::FloatMemWrite            0      0.00%    100.00% # Number of instructions issued per FU type, per thread (Count)
system.cpu.statIssuedInstType_0::IprAccess            0      0.00%    100.00% # Number of instructions issued per FU type, per thread (Count)
system.cpu.statIssuedInstType_0::InstPrefetch            0      0.00%    100.00% # Number of instructions issued per FU type, per thread (Count)
system.cpu.statIssuedInstType_0::total     1281587022                       # Number of instructions issued per FU type, per thread (Count)
system.cpu.issueRate                         1.831285                       # Inst issue rate ((Count/Cycle))
system.cpu.fuBusy                             7507779                       # FU busy when requested (Count)
system.cpu.fuBusyRate                        0.005858                       # FU busy rate (busy events/executed inst) ((Count/Count))
system.cpu.intInstQueueReads               3270494314                       # Number of integer instruction queue reads (Count)
system.cpu.intInstQueueWrites              1455972761                       # Number of integer instruction queue writes (Count)
system.cpu.intInstQueueWakeupAccesses      1223663128                       # Number of integer instruction queue wakeup accesses (Count)
system.cpu.fpInstQueueReads                         0                       # Number of floating instruction queue reads (Count)
system.cpu.fpInstQueueWrites                        0                       # Number of floating instruction queue writes (Count)
system.cpu.fpInstQueueWakeupAccesses                0                       # Number of floating instruction queue wakeup accesses (Count)
system.cpu.vecInstQueueReads                        0                       # Number of vector instruction queue reads (Count)
system.cpu.vecInstQueueWrites                       0                       # Number of vector instruction queue writes (Count)
system.cpu.vecInstQueueWakeupAccesses               0                       # Number of vector instruction queue wakeup accesses (Count)
system.cpu.intAluAccesses                  1266496418                       # Number of integer alu accesses (Count)
system.cpu.fpAluAccesses                            0                       # Number of floating point alu accesses (Count)
system.cpu.vecAluAccesses                           0                       # Number of vector alu accesses (Count)
system.cpu.numInsts                        1278346045                       # Number of executed instructions (Count)
system.cpu.numLoadInsts                     158097357                       # Number of load instructions executed (Count)
system.cpu.numSquashedInsts                   3240975                       # Number of squashed instructions skipped in execute (Count)
system.cpu.numSwp                                   0                       # Number of swp insts executed (Count)
system.cpu.numNop                                   0                       # Number of nop insts executed (Count)
system.cpu.numRefs                          263441674                       # Number of memory reference insts executed (Count)
system.cpu.numBranches                      144661295                       # Number of branches executed (Count)
system.cpu.numStoreInsts                    105344317                       # Number of stores executed (Count)
system.cpu.numRate                           1.826654                       # Inst execution rate ((Count/Cycle))
system.cpu.timesIdled                             207                       # Number of times that the entire CPU went into an idle state and unscheduled itself (Count)
system.cpu.idleCycles                           19256                       # Total number of cycles that the CPU has spent unscheduled due to idling (Cycle)
system.cpu.committedInsts                  1000000001                       # Number of Instructions Simulated (Count)
system.cpu.committedOps                    1177819171                       # Number of Ops (including micro ops) Simulated (Count)
system.cpu.cpi                               0.699829                       # CPI: Cycles Per Instruction ((Cycle/Count))
system.cpu.totalCpi                          0.699829                       # CPI: Total CPI of All Threads ((Cycle/Count))
system.cpu.ipc                               1.428920                       # IPC: Instructions Per Cycle ((Count/Cycle))
system.cpu.totalIpc                          1.428920                       # IPC: Total IPC of All Threads ((Count/Cycle))
system.cpu.intRegfileReads                 1627447347                       # Number of integer regfile reads (Count)
system.cpu.intRegfileWrites                 995945613                       # Number of integer regfile writes (Count)
system.cpu.vecRegfileReads                         16                       # number of vector regfile reads (Count)
system.cpu.ccRegfileReads                  4178011796                       # number of cc regfile reads (Count)
system.cpu.ccRegfileWrites                  503601895                       # number of cc regfile writes (Count)
system.cpu.miscRegfileReads                 227799718                       # number of misc regfile reads (Count)
system.cpu.miscRegfileWrites                      165                       # number of misc regfile writes (Count)
system.cpu.MemDepUnit__0.insertedLoads      129993905                       # Number of loads inserted to the mem dependence unit. (Count)
system.cpu.MemDepUnit__0.insertedStores     105836399                       # Number of stores inserted to the mem dependence unit. (Count)
system.cpu.MemDepUnit__0.conflictingLoads     32459379                       # Number of conflicting loads. (Count)
system.cpu.MemDepUnit__0.conflictingStores     23501842                       # Number of conflicting stores. (Count)
system.cpu.MemDepUnit__1.insertedLoads              0                       # Number of loads inserted to the mem dependence unit. (Count)
system.cpu.MemDepUnit__1.insertedStores             0                       # Number of stores inserted to the mem dependence unit. (Count)
system.cpu.MemDepUnit__1.conflictingLoads            0                       # Number of conflicting loads. (Count)
system.cpu.MemDepUnit__1.conflictingStores            0                       # Number of conflicting stores. (Count)
system.cpu.MemDepUnit__2.insertedLoads              0                       # Number of loads inserted to the mem dependence unit. (Count)
system.cpu.MemDepUnit__2.insertedStores             0                       # Number of stores inserted to the mem dependence unit. (Count)
system.cpu.MemDepUnit__2.conflictingLoads            0                       # Number of conflicting loads. (Count)
system.cpu.MemDepUnit__2.conflictingStores            0                       # Number of conflicting stores. (Count)
system.cpu.MemDepUnit__3.insertedLoads              0                       # Number of loads inserted to the mem dependence unit. (Count)
system.cpu.MemDepUnit__3.insertedStores             0                       # Number of stores inserted to the mem dependence unit. (Count)
system.cpu.MemDepUnit__3.conflictingLoads            0                       # Number of conflicting loads. (Count)
system.cpu.MemDepUnit__3.conflictingStores            0                       # Number of conflicting stores. (Count)
system.cpu.branchPred.lookups               153177098                       # Number of BP lookups (Count)
system.cpu.branchPred.condPredicted         101110661                       # Number of conditional branches predicted (Count)
system.cpu.branchPred.condIncorrect           4375800                       # Number of conditional branches incorrect (Count)
system.cpu.branchPred.BTBLookups             76986357                       # Number of BTB lookups (Count)
system.cpu.branchPred.BTBHits                76985555                       # Number of BTB hits (Count)
system.cpu.branchPred.BTBHitRatio            0.999990                       # BTB Hit Ratio (Ratio)
system.cpu.branchPred.RASUsed                27953049                       # Number of times the RAS was used to get a target. (Count)
system.cpu.branchPred.RASIncorrect            4206364                       # Number of incorrect RAS predictions. (Count)
system.cpu.branchPred.indirectLookups             181                       # Number of indirect predictor lookups. (Count)
system.cpu.branchPred.indirectHits                 35                       # Number of indirect target hits. (Count)
system.cpu.branchPred.indirectMisses              146                       # Number of indirect misses. (Count)
system.cpu.branchPred.indirectMispredicted           62                       # Number of mispredicted indirect branches. (Count)
system.cpu.commit.commitSquashedInsts       138703264                       # The number of squashed insts skipped by commit (Count)
system.cpu.commit.commitNonSpecStalls              96                       # The number of times commit has been forced to stall to communicate backwards (Count)
system.cpu.commit.branchMispredicts          26121947                       # The number of times a branch was mispredicted (Count)
system.cpu.commit.numCommittedDist::samples    656161115                       # Number of insts commited each cycle (Count)
system.cpu.commit.numCommittedDist::mean     1.795015                       # Number of insts commited each cycle (Count)
system.cpu.commit.numCommittedDist::stdev     2.628501                       # Number of insts commited each cycle (Count)
system.cpu.commit.numCommittedDist::underflows            0      0.00%      0.00% # Number of insts commited each cycle (Count)
system.cpu.commit.numCommittedDist::0       341026083     51.97%     51.97% # Number of insts commited each cycle (Count)
system.cpu.commit.numCommittedDist::1        97323043     14.83%     66.81% # Number of insts commited each cycle (Count)
system.cpu.commit.numCommittedDist::2        35487189      5.41%     72.21% # Number of insts commited each cycle (Count)
system.cpu.commit.numCommittedDist::3        51470730      7.84%     80.06% # Number of insts commited each cycle (Count)
system.cpu.commit.numCommittedDist::4        28173516      4.29%     84.35% # Number of insts commited each cycle (Count)
system.cpu.commit.numCommittedDist::5        11970170      1.82%     86.18% # Number of insts commited each cycle (Count)
system.cpu.commit.numCommittedDist::6        18201634      2.77%     88.95% # Number of insts commited each cycle (Count)
system.cpu.commit.numCommittedDist::7         6715158      1.02%     89.97% # Number of insts commited each cycle (Count)
system.cpu.commit.numCommittedDist::8        65793592     10.03%    100.00% # Number of insts commited each cycle (Count)
system.cpu.commit.numCommittedDist::overflows            0      0.00%    100.00% # Number of insts commited each cycle (Count)
system.cpu.commit.numCommittedDist::min_value            0                       # Number of insts commited each cycle (Count)
system.cpu.commit.numCommittedDist::max_value            8                       # Number of insts commited each cycle (Count)
system.cpu.commit.numCommittedDist::total    656161115                       # Number of insts commited each cycle (Count)
system.cpu.commit.instsCommitted           1000000001                       # Number of instructions committed (Count)
system.cpu.commit.opsCommitted             1177819171                       # Number of ops (including micro ops) committed (Count)
system.cpu.commit.memRefs                   225789107                       # Number of memory references committed (Count)
system.cpu.commit.loads                     120667805                       # Number of loads committed (Count)
system.cpu.commit.amos                              0                       # Number of atomic instructions committed (Count)
system.cpu.commit.membars                          42                       # Number of memory barriers committed (Count)
system.cpu.commit.branches                  139955285                       # Number of branches committed (Count)
system.cpu.commit.vectorInstructions                0                       # Number of committed Vector instructions. (Count)
system.cpu.commit.floating                          0                       # Number of committed floating point instructions. (Count)
system.cpu.commit.integer                  1114424375                       # Number of committed integer instructions. (Count)
system.cpu.commit.functionCalls              36944233                       # Number of function calls committed. (Count)
system.cpu.commit.committedInstType_0::No_OpClass            0      0.00%      0.00% # Class of committed instruction (Count)
system.cpu.commit.committedInstType_0::IntAlu    931875767     79.12%     79.12% # Class of committed instruction (Count)
system.cpu.commit.committedInstType_0::IntMult     20154297      1.71%     80.83% # Class of committed instruction (Count)
system.cpu.commit.committedInstType_0::IntDiv            0      0.00%     80.83% # Class of committed instruction (Count)
system.cpu.commit.committedInstType_0::FloatAdd            0      0.00%     80.83% # Class of committed instruction (Count)
system.cpu.commit.committedInstType_0::FloatCmp            0      0.00%     80.83% # Class of committed instruction (Count)
system.cpu.commit.committedInstType_0::FloatCvt            0      0.00%     80.83% # Class of committed instruction (Count)
system.cpu.commit.committedInstType_0::FloatMult            0      0.00%     80.83% # Class of committed instruction (Count)
system.cpu.commit.committedInstType_0::FloatMultAcc            0      0.00%     80.83% # Class of committed instruction (Count)
system.cpu.commit.committedInstType_0::FloatDiv            0      0.00%     80.83% # Class of committed instruction (Count)
system.cpu.commit.committedInstType_0::FloatMisc            0      0.00%     80.83% # Class of committed instruction (Count)
system.cpu.commit.committedInstType_0::FloatSqrt            0      0.00%     80.83% # Class of committed instruction (Count)
system.cpu.commit.committedInstType_0::SimdAdd            0      0.00%     80.83% # Class of committed instruction (Count)
system.cpu.commit.committedInstType_0::SimdAddAcc            0      0.00%     80.83% # Class of committed instruction (Count)
system.cpu.commit.committedInstType_0::SimdAlu            0      0.00%     80.83% # Class of committed instruction (Count)
system.cpu.commit.committedInstType_0::SimdCmp            0      0.00%     80.83% # Class of committed instruction (Count)
system.cpu.commit.committedInstType_0::SimdCvt            0      0.00%     80.83% # Class of committed instruction (Count)
system.cpu.commit.committedInstType_0::SimdMisc            0      0.00%     80.83% # Class of committed instruction (Count)
system.cpu.commit.committedInstType_0::SimdMult            0      0.00%     80.83% # Class of committed instruction (Count)
system.cpu.commit.committedInstType_0::SimdMultAcc            0      0.00%     80.83% # Class of committed instruction (Count)
system.cpu.commit.committedInstType_0::SimdShift            0      0.00%     80.83% # Class of committed instruction (Count)
system.cpu.commit.committedInstType_0::SimdShiftAcc            0      0.00%     80.83% # Class of committed instruction (Count)
system.cpu.commit.committedInstType_0::SimdDiv            0      0.00%     80.83% # Class of committed instruction (Count)
system.cpu.commit.committedInstType_0::SimdSqrt            0      0.00%     80.83% # Class of committed instruction (Count)
system.cpu.commit.committedInstType_0::SimdFloatAdd            0      0.00%     80.83% # Class of committed instruction (Count)
system.cpu.commit.committedInstType_0::SimdFloatAlu            0      0.00%     80.83% # Class of committed instruction (Count)
system.cpu.commit.committedInstType_0::SimdFloatCmp            0      0.00%     80.83% # Class of committed instruction (Count)
system.cpu.commit.committedInstType_0::SimdFloatCvt            0      0.00%     80.83% # Class of committed instruction (Count)
system.cpu.commit.committedInstType_0::SimdFloatDiv            0      0.00%     80.83% # Class of committed instruction (Count)
system.cpu.commit.committedInstType_0::SimdFloatMisc            0      0.00%     80.83% # Class of committed instruction (Count)
system.cpu.commit.committedInstType_0::SimdFloatMult            0      0.00%     80.83% # Class of committed instruction (Count)
system.cpu.commit.committedInstType_0::SimdFloatMultAcc            0      0.00%     80.83% # Class of committed instruction (Count)
system.cpu.commit.committedInstType_0::SimdFloatSqrt            0      0.00%     80.83% # Class of committed instruction (Count)
system.cpu.commit.committedInstType_0::SimdReduceAdd            0      0.00%     80.83% # Class of committed instruction (Count)
system.cpu.commit.committedInstType_0::SimdReduceAlu            0      0.00%     80.83% # Class of committed instruction (Count)
system.cpu.commit.committedInstType_0::SimdReduceCmp            0      0.00%     80.83% # Class of committed instruction (Count)
system.cpu.commit.committedInstType_0::SimdFloatReduceAdd            0      0.00%     80.83% # Class of committed instruction (Count)
system.cpu.commit.committedInstType_0::SimdFloatReduceCmp            0      0.00%     80.83% # Class of committed instruction (Count)
system.cpu.commit.committedInstType_0::SimdAes            0      0.00%     80.83% # Class of committed instruction (Count)
system.cpu.commit.committedInstType_0::SimdAesMix            0      0.00%     80.83% # Class of committed instruction (Count)
system.cpu.commit.committedInstType_0::SimdSha1Hash            0      0.00%     80.83% # Class of committed instruction (Count)
system.cpu.commit.committedInstType_0::SimdSha1Hash2            0      0.00%     80.83% # Class of committed instruction (Count)
system.cpu.commit.committedInstType_0::SimdSha256Hash            0      0.00%     80.83% # Class of committed instruction (Count)
system.cpu.commit.committedInstType_0::SimdSha256Hash2            0      0.00%     80.83% # Class of committed instruction (Count)
system.cpu.commit.committedInstType_0::SimdShaSigma2            0      0.00%     80.83% # Class of committed instruction (Count)
system.cpu.commit.committedInstType_0::SimdShaSigma3            0      0.00%     80.83% # Class of committed instruction (Count)
system.cpu.commit.committedInstType_0::SimdPredAlu            0      0.00%     80.83% # Class of committed instruction (Count)
system.cpu.commit.committedInstType_0::MemRead    120667805     10.25%     91.07% # Class of committed instruction (Count)
system.cpu.commit.committedInstType_0::MemWrite    105121302      8.93%    100.00% # Class of committed instruction (Count)
system.cpu.commit.committedInstType_0::FloatMemRead            0      0.00%    100.00% # Class of committed instruction (Count)
system.cpu.commit.committedInstType_0::FloatMemWrite            0      0.00%    100.00% # Class of committed instruction (Count)
system.cpu.commit.committedInstType_0::IprAccess            0      0.00%    100.00% # Class of committed instruction (Count)
system.cpu.commit.committedInstType_0::InstPrefetch            0      0.00%    100.00% # Class of committed instruction (Count)
system.cpu.commit.committedInstType_0::total   1177819171                       # Class of committed instruction (Count)
system.cpu.commit.commitEligibleSamples      65793592                       # number cycles where commit BW limit reached (Cycle)
system.cpu.dcache.demandHits::cpu.data      206763366                       # number of demand (read+write) hits (Count)
system.cpu.dcache.demandHits::total         206763366                       # number of demand (read+write) hits (Count)
system.cpu.dcache.overallHits::cpu.data     206763366                       # number of overall hits (Count)
system.cpu.dcache.overallHits::total        206763366                       # number of overall hits (Count)
system.cpu.dcache.demandMisses::cpu.data      3617034                       # number of demand (read+write) misses (Count)
system.cpu.dcache.demandMisses::total         3617034                       # number of demand (read+write) misses (Count)
system.cpu.dcache.overallMisses::cpu.data      3617034                       # number of overall misses (Count)
system.cpu.dcache.overallMisses::total        3617034                       # number of overall misses (Count)
system.cpu.dcache.demandMissLatency::cpu.data 268140388167                       # number of demand (read+write) miss ticks (Tick)
system.cpu.dcache.demandMissLatency::total 268140388167                       # number of demand (read+write) miss ticks (Tick)
system.cpu.dcache.overallMissLatency::cpu.data 268140388167                       # number of overall miss ticks (Tick)
system.cpu.dcache.overallMissLatency::total 268140388167                       # number of overall miss ticks (Tick)
system.cpu.dcache.demandAccesses::cpu.data    210380400                       # number of demand (read+write) accesses (Count)
system.cpu.dcache.demandAccesses::total     210380400                       # number of demand (read+write) accesses (Count)
system.cpu.dcache.overallAccesses::cpu.data    210380400                       # number of overall (read+write) accesses (Count)
system.cpu.dcache.overallAccesses::total    210380400                       # number of overall (read+write) accesses (Count)
system.cpu.dcache.demandMissRate::cpu.data     0.017193                       # miss rate for demand accesses (Ratio)
system.cpu.dcache.demandMissRate::total      0.017193                       # miss rate for demand accesses (Ratio)
system.cpu.dcache.overallMissRate::cpu.data     0.017193                       # miss rate for overall accesses (Ratio)
system.cpu.dcache.overallMissRate::total     0.017193                       # miss rate for overall accesses (Ratio)
system.cpu.dcache.demandAvgMissLatency::cpu.data 74132.670074                       # average overall miss latency in ticks ((Tick/Count))
system.cpu.dcache.demandAvgMissLatency::total 74132.670074                       # average overall miss latency in ticks ((Tick/Count))
system.cpu.dcache.overallAvgMissLatency::cpu.data 74132.670074                       # average overall miss latency ((Tick/Count))
system.cpu.dcache.overallAvgMissLatency::total 74132.670074                       # average overall miss latency ((Tick/Count))
system.cpu.dcache.blockedCycles::no_mshrs          376                       # number of cycles access was blocked (Cycle)
system.cpu.dcache.blockedCycles::no_targets            0                       # number of cycles access was blocked (Cycle)
system.cpu.dcache.blockedCauses::no_mshrs           10                       # number of times access was blocked (Count)
system.cpu.dcache.blockedCauses::no_targets            0                       # number of times access was blocked (Count)
system.cpu.dcache.avgBlocked::no_mshrs      37.600000                       # average number of cycles each access was blocked ((Cycle/Count))
system.cpu.dcache.avgBlocked::no_targets          nan                       # average number of cycles each access was blocked ((Cycle/Count))
system.cpu.dcache.writebacks::writebacks       524419                       # number of writebacks (Count)
system.cpu.dcache.writebacks::total            524419                       # number of writebacks (Count)
system.cpu.dcache.demandMshrHits::cpu.data      1573672                       # number of demand (read+write) MSHR hits (Count)
system.cpu.dcache.demandMshrHits::total       1573672                       # number of demand (read+write) MSHR hits (Count)
system.cpu.dcache.overallMshrHits::cpu.data      1573672                       # number of overall MSHR hits (Count)
system.cpu.dcache.overallMshrHits::total      1573672                       # number of overall MSHR hits (Count)
system.cpu.dcache.demandMshrMisses::cpu.data      2043362                       # number of demand (read+write) MSHR misses (Count)
system.cpu.dcache.demandMshrMisses::total      2043362                       # number of demand (read+write) MSHR misses (Count)
system.cpu.dcache.overallMshrMisses::cpu.data      2043362                       # number of overall MSHR misses (Count)
system.cpu.dcache.overallMshrMisses::total      2043362                       # number of overall MSHR misses (Count)
system.cpu.dcache.demandMshrMissLatency::cpu.data 179372231463                       # number of demand (read+write) MSHR miss ticks (Tick)
system.cpu.dcache.demandMshrMissLatency::total 179372231463                       # number of demand (read+write) MSHR miss ticks (Tick)
system.cpu.dcache.overallMshrMissLatency::cpu.data 179372231463                       # number of overall MSHR miss ticks (Tick)
system.cpu.dcache.overallMshrMissLatency::total 179372231463                       # number of overall MSHR miss ticks (Tick)
system.cpu.dcache.demandMshrMissRate::cpu.data     0.009713                       # mshr miss ratio for demand accesses (Ratio)
system.cpu.dcache.demandMshrMissRate::total     0.009713                       # mshr miss ratio for demand accesses (Ratio)
system.cpu.dcache.overallMshrMissRate::cpu.data     0.009713                       # mshr miss ratio for overall accesses (Ratio)
system.cpu.dcache.overallMshrMissRate::total     0.009713                       # mshr miss ratio for overall accesses (Ratio)
system.cpu.dcache.demandAvgMshrMissLatency::cpu.data 87782.894790                       # average overall mshr miss latency ((Tick/Count))
system.cpu.dcache.demandAvgMshrMissLatency::total 87782.894790                       # average overall mshr miss latency ((Tick/Count))
system.cpu.dcache.overallAvgMshrMissLatency::cpu.data 87782.894790                       # average overall mshr miss latency ((Tick/Count))
system.cpu.dcache.overallAvgMshrMissLatency::total 87782.894790                       # average overall mshr miss latency ((Tick/Count))
system.cpu.dcache.replacements                2042850                       # number of replacements (Count)
system.cpu.dcache.LoadLockedReq.hits::cpu.data           45                       # number of LoadLockedReq hits (Count)
system.cpu.dcache.LoadLockedReq.hits::total           45                       # number of LoadLockedReq hits (Count)
system.cpu.dcache.LoadLockedReq.misses::cpu.data            3                       # number of LoadLockedReq misses (Count)
system.cpu.dcache.LoadLockedReq.misses::total            3                       # number of LoadLockedReq misses (Count)
system.cpu.dcache.LoadLockedReq.missLatency::cpu.data       145116                       # number of LoadLockedReq miss ticks (Tick)
system.cpu.dcache.LoadLockedReq.missLatency::total       145116                       # number of LoadLockedReq miss ticks (Tick)
system.cpu.dcache.LoadLockedReq.accesses::cpu.data           48                       # number of LoadLockedReq accesses(hits+misses) (Count)
system.cpu.dcache.LoadLockedReq.accesses::total           48                       # number of LoadLockedReq accesses(hits+misses) (Count)
system.cpu.dcache.LoadLockedReq.missRate::cpu.data     0.062500                       # miss rate for LoadLockedReq accesses (Ratio)
system.cpu.dcache.LoadLockedReq.missRate::total     0.062500                       # miss rate for LoadLockedReq accesses (Ratio)
system.cpu.dcache.LoadLockedReq.avgMissLatency::cpu.data        48372                       # average LoadLockedReq miss latency ((Tick/Count))
system.cpu.dcache.LoadLockedReq.avgMissLatency::total        48372                       # average LoadLockedReq miss latency ((Tick/Count))
system.cpu.dcache.LoadLockedReq.mshrHits::cpu.data            3                       # number of LoadLockedReq MSHR hits (Count)
system.cpu.dcache.LoadLockedReq.mshrHits::total            3                       # number of LoadLockedReq MSHR hits (Count)
system.cpu.dcache.ReadReq.hits::cpu.data    103740007                       # number of ReadReq hits (Count)
system.cpu.dcache.ReadReq.hits::total       103740007                       # number of ReadReq hits (Count)
system.cpu.dcache.ReadReq.misses::cpu.data      1519147                       # number of ReadReq misses (Count)
system.cpu.dcache.ReadReq.misses::total       1519147                       # number of ReadReq misses (Count)
system.cpu.dcache.ReadReq.missLatency::cpu.data 141185130740                       # number of ReadReq miss ticks (Tick)
system.cpu.dcache.ReadReq.missLatency::total 141185130740                       # number of ReadReq miss ticks (Tick)
system.cpu.dcache.ReadReq.accesses::cpu.data    105259154                       # number of ReadReq accesses(hits+misses) (Count)
system.cpu.dcache.ReadReq.accesses::total    105259154                       # number of ReadReq accesses(hits+misses) (Count)
system.cpu.dcache.ReadReq.missRate::cpu.data     0.014432                       # miss rate for ReadReq accesses (Ratio)
system.cpu.dcache.ReadReq.missRate::total     0.014432                       # miss rate for ReadReq accesses (Ratio)
system.cpu.dcache.ReadReq.avgMissLatency::cpu.data 92937.109273                       # average ReadReq miss latency ((Tick/Count))
system.cpu.dcache.ReadReq.avgMissLatency::total 92937.109273                       # average ReadReq miss latency ((Tick/Count))
system.cpu.dcache.ReadReq.mshrHits::cpu.data          312                       # number of ReadReq MSHR hits (Count)
system.cpu.dcache.ReadReq.mshrHits::total          312                       # number of ReadReq MSHR hits (Count)
system.cpu.dcache.ReadReq.mshrMisses::cpu.data      1518835                       # number of ReadReq MSHR misses (Count)
system.cpu.dcache.ReadReq.mshrMisses::total      1518835                       # number of ReadReq MSHR misses (Count)
system.cpu.dcache.ReadReq.mshrMissLatency::cpu.data 139155177836                       # number of ReadReq MSHR miss ticks (Tick)
system.cpu.dcache.ReadReq.mshrMissLatency::total 139155177836                       # number of ReadReq MSHR miss ticks (Tick)
system.cpu.dcache.ReadReq.mshrMissRate::cpu.data     0.014429                       # mshr miss rate for ReadReq accesses (Ratio)
system.cpu.dcache.ReadReq.mshrMissRate::total     0.014429                       # mshr miss rate for ReadReq accesses (Ratio)
system.cpu.dcache.ReadReq.avgMshrMissLatency::cpu.data 91619.680766                       # average ReadReq mshr miss latency ((Tick/Count))
system.cpu.dcache.ReadReq.avgMshrMissLatency::total 91619.680766                       # average ReadReq mshr miss latency ((Tick/Count))
system.cpu.dcache.StoreCondReq.hits::cpu.data           41                       # number of StoreCondReq hits (Count)
system.cpu.dcache.StoreCondReq.hits::total           41                       # number of StoreCondReq hits (Count)
system.cpu.dcache.StoreCondReq.accesses::cpu.data           41                       # number of StoreCondReq accesses(hits+misses) (Count)
system.cpu.dcache.StoreCondReq.accesses::total           41                       # number of StoreCondReq accesses(hits+misses) (Count)
system.cpu.dcache.WriteReq.hits::cpu.data    103023359                       # number of WriteReq hits (Count)
system.cpu.dcache.WriteReq.hits::total      103023359                       # number of WriteReq hits (Count)
system.cpu.dcache.WriteReq.misses::cpu.data      2097887                       # number of WriteReq misses (Count)
system.cpu.dcache.WriteReq.misses::total      2097887                       # number of WriteReq misses (Count)
system.cpu.dcache.WriteReq.missLatency::cpu.data 126955257427                       # number of WriteReq miss ticks (Tick)
system.cpu.dcache.WriteReq.missLatency::total 126955257427                       # number of WriteReq miss ticks (Tick)
system.cpu.dcache.WriteReq.accesses::cpu.data    105121246                       # number of WriteReq accesses(hits+misses) (Count)
system.cpu.dcache.WriteReq.accesses::total    105121246                       # number of WriteReq accesses(hits+misses) (Count)
system.cpu.dcache.WriteReq.missRate::cpu.data     0.019957                       # miss rate for WriteReq accesses (Ratio)
system.cpu.dcache.WriteReq.missRate::total     0.019957                       # miss rate for WriteReq accesses (Ratio)
system.cpu.dcache.WriteReq.avgMissLatency::cpu.data 60515.774885                       # average WriteReq miss latency ((Tick/Count))
system.cpu.dcache.WriteReq.avgMissLatency::total 60515.774885                       # average WriteReq miss latency ((Tick/Count))
system.cpu.dcache.WriteReq.mshrHits::cpu.data      1573360                       # number of WriteReq MSHR hits (Count)
system.cpu.dcache.WriteReq.mshrHits::total      1573360                       # number of WriteReq MSHR hits (Count)
system.cpu.dcache.WriteReq.mshrMisses::cpu.data       524527                       # number of WriteReq MSHR misses (Count)
system.cpu.dcache.WriteReq.mshrMisses::total       524527                       # number of WriteReq MSHR misses (Count)
system.cpu.dcache.WriteReq.mshrMissLatency::cpu.data  40217053627                       # number of WriteReq MSHR miss ticks (Tick)
system.cpu.dcache.WriteReq.mshrMissLatency::total  40217053627                       # number of WriteReq MSHR miss ticks (Tick)
system.cpu.dcache.WriteReq.mshrMissRate::cpu.data     0.004990                       # mshr miss rate for WriteReq accesses (Ratio)
system.cpu.dcache.WriteReq.mshrMissRate::total     0.004990                       # mshr miss rate for WriteReq accesses (Ratio)
system.cpu.dcache.WriteReq.avgMshrMissLatency::cpu.data 76672.990384                       # average WriteReq mshr miss latency ((Tick/Count))
system.cpu.dcache.WriteReq.avgMshrMissLatency::total 76672.990384                       # average WriteReq mshr miss latency ((Tick/Count))
system.cpu.dcache.power_state.pwrStateResidencyTicks::UNDEFINED 389105145288                       # Cumulative time (in ticks) in various power states (Tick)
system.cpu.dcache.tags.tagsInUse           511.908780                       # Average ticks per tags in use ((Tick/Count))
system.cpu.dcache.tags.totalRefs            208806814                       # Total number of references to valid blocks. (Count)
system.cpu.dcache.tags.sampledRefs            2043362                       # Sample count of references to valid blocks. (Count)
system.cpu.dcache.tags.avgRefs             102.187872                       # Average number of references to valid blocks. ((Count/Count))
system.cpu.dcache.tags.warmupTick              150000                       # The tick when the warmup percentage was hit. (Tick)
system.cpu.dcache.tags.occupancies::cpu.data   511.908780                       # Average occupied blocks per tick, per requestor ((Count/Tick))
system.cpu.dcache.tags.avgOccs::cpu.data     0.999822                       # Average percentage of cache occupancy ((Ratio/Tick))
system.cpu.dcache.tags.avgOccs::total        0.999822                       # Average percentage of cache occupancy ((Ratio/Tick))
system.cpu.dcache.tags.occupanciesTaskId::1024          512                       # Occupied blocks per task id (Count)
system.cpu.dcache.tags.ageTaskId_1024::0            3                       # Occupied blocks per task id, per block age (Count)
system.cpu.dcache.tags.ageTaskId_1024::2            4                       # Occupied blocks per task id, per block age (Count)
system.cpu.dcache.tags.ageTaskId_1024::3           32                       # Occupied blocks per task id, per block age (Count)
system.cpu.dcache.tags.ageTaskId_1024::4          473                       # Occupied blocks per task id, per block age (Count)
system.cpu.dcache.tags.ratioOccsTaskId::1024            1                       # Ratio of occupied blocks and all blocks, per task id (Ratio)
system.cpu.dcache.tags.tagAccesses          843565318                       # Number of tag accesses (Count)
system.cpu.dcache.tags.dataAccesses         843565318                       # Number of data accesses (Count)
system.cpu.dcache.tags.power_state.pwrStateResidencyTicks::UNDEFINED 389105145288                       # Cumulative time (in ticks) in various power states (Tick)
system.cpu.decode.idleCycles                243189408                       # Number of cycles decode is idle (Cycle)
system.cpu.decode.blockedCycles             199634461                       # Number of cycles decode is blocked (Cycle)
system.cpu.decode.runCycles                 198567496                       # Number of cycles decode is running (Cycle)
system.cpu.decode.unblockCycles              32285196                       # Number of cycles decode is unblocking (Cycle)
system.cpu.decode.squashCycles               26133582                       # Number of cycles decode is squashing (Cycle)
system.cpu.decode.branchResolved             75839677                       # Number of times decode resolved a branch (Count)
system.cpu.decode.branchMispred                   217                       # Number of times decode detected a branch misprediction (Count)
system.cpu.decode.decodedInsts             1336510230                       # Number of instructions handled by decode (Count)
system.cpu.decode.squashedInsts                   733                       # Number of squashed instructions handled by decode (Count)
system.cpu.fetch.icacheStallCycles          157889353                       # Number of cycles fetch is stalled on an Icache miss (Cycle)
system.cpu.fetch.insts                     1128636106                       # Number of instructions fetch has processed (Count)
system.cpu.fetch.branches                   153177098                       # Number of branches that fetch encountered (Count)
system.cpu.fetch.predictedBranches          104938639                       # Number of branches that fetch has predicted taken (Count)
system.cpu.fetch.cycles                     354471151                       # Number of cycles fetch has run and was not squashing or blocked (Cycle)
system.cpu.fetch.squashCycles                52267568                       # Number of cycles fetch has spent squashing (Cycle)
system.cpu.fetch.miscStallCycles             23642492                       # Number of cycles fetch has spent waiting on interrupts, or bad addresses, or out of MSHRs (Cycle)
system.cpu.fetch.pendingTrapStallCycles     137673321                       # Number of stall cycles due to pending traps (Cycle)
system.cpu.fetch.icacheWaitRetryStallCycles           42                       # Number of stall cycles due to full MSHR (Cycle)
system.cpu.fetch.cacheLines                 155679257                       # Number of cache lines fetched (Count)
system.cpu.fetch.icacheSquashes                 65619                       # Number of outstanding Icache misses that were squashed (Count)
system.cpu.fetch.nisnDist::samples          699810143                       # Number of instructions fetched each cycle (Total) (Count)
system.cpu.fetch.nisnDist::mean              1.890767                       # Number of instructions fetched each cycle (Total) (Count)
system.cpu.fetch.nisnDist::stdev             3.014519                       # Number of instructions fetched each cycle (Total) (Count)
system.cpu.fetch.nisnDist::underflows               0      0.00%      0.00% # Number of instructions fetched each cycle (Total) (Count)
system.cpu.fetch.nisnDist::0                466489012     66.66%     66.66% # Number of instructions fetched each cycle (Total) (Count)
system.cpu.fetch.nisnDist::1                 16006956      2.29%     68.95% # Number of instructions fetched each cycle (Total) (Count)
system.cpu.fetch.nisnDist::2                 14151468      2.02%     70.97% # Number of instructions fetched each cycle (Total) (Count)
system.cpu.fetch.nisnDist::3                 31170170      4.45%     75.42% # Number of instructions fetched each cycle (Total) (Count)
system.cpu.fetch.nisnDist::4                 13547439      1.94%     77.36% # Number of instructions fetched each cycle (Total) (Count)
system.cpu.fetch.nisnDist::5                 25315096      3.62%     80.98% # Number of instructions fetched each cycle (Total) (Count)
system.cpu.fetch.nisnDist::6                 22420826      3.20%     84.18% # Number of instructions fetched each cycle (Total) (Count)
system.cpu.fetch.nisnDist::7                 15606253      2.23%     86.41% # Number of instructions fetched each cycle (Total) (Count)
system.cpu.fetch.nisnDist::8                 95102923     13.59%    100.00% # Number of instructions fetched each cycle (Total) (Count)
system.cpu.fetch.nisnDist::overflows                0      0.00%    100.00% # Number of instructions fetched each cycle (Total) (Count)
system.cpu.fetch.nisnDist::min_value                0                       # Number of instructions fetched each cycle (Total) (Count)
system.cpu.fetch.nisnDist::max_value                8                       # Number of instructions fetched each cycle (Total) (Count)
system.cpu.fetch.nisnDist::total            699810143                       # Number of instructions fetched each cycle (Total) (Count)
system.cpu.fetch.branchRate                  0.218878                       # Number of branch fetches per cycle (Ratio)
system.cpu.fetch.rate                        1.612730                       # Number of inst fetches per cycle ((Count/Cycle))
system.cpu.icache.demandHits::cpu.inst      155678781                       # number of demand (read+write) hits (Count)
system.cpu.icache.demandHits::total         155678781                       # number of demand (read+write) hits (Count)
system.cpu.icache.overallHits::cpu.inst     155678781                       # number of overall hits (Count)
system.cpu.icache.overallHits::total        155678781                       # number of overall hits (Count)
system.cpu.icache.demandMisses::cpu.inst          474                       # number of demand (read+write) misses (Count)
system.cpu.icache.demandMisses::total             474                       # number of demand (read+write) misses (Count)
system.cpu.icache.overallMisses::cpu.inst          474                       # number of overall misses (Count)
system.cpu.icache.overallMisses::total            474                       # number of overall misses (Count)
system.cpu.icache.demandMissLatency::cpu.inst     32595678                       # number of demand (read+write) miss ticks (Tick)
system.cpu.icache.demandMissLatency::total     32595678                       # number of demand (read+write) miss ticks (Tick)
system.cpu.icache.overallMissLatency::cpu.inst     32595678                       # number of overall miss ticks (Tick)
system.cpu.icache.overallMissLatency::total     32595678                       # number of overall miss ticks (Tick)
system.cpu.icache.demandAccesses::cpu.inst    155679255                       # number of demand (read+write) accesses (Count)
system.cpu.icache.demandAccesses::total     155679255                       # number of demand (read+write) accesses (Count)
system.cpu.icache.overallAccesses::cpu.inst    155679255                       # number of overall (read+write) accesses (Count)
system.cpu.icache.overallAccesses::total    155679255                       # number of overall (read+write) accesses (Count)
system.cpu.icache.demandMissRate::cpu.inst     0.000003                       # miss rate for demand accesses (Ratio)
system.cpu.icache.demandMissRate::total      0.000003                       # miss rate for demand accesses (Ratio)
system.cpu.icache.overallMissRate::cpu.inst     0.000003                       # miss rate for overall accesses (Ratio)
system.cpu.icache.overallMissRate::total     0.000003                       # miss rate for overall accesses (Ratio)
system.cpu.icache.demandAvgMissLatency::cpu.inst 68767.253165                       # average overall miss latency in ticks ((Tick/Count))
system.cpu.icache.demandAvgMissLatency::total 68767.253165                       # average overall miss latency in ticks ((Tick/Count))
system.cpu.icache.overallAvgMissLatency::cpu.inst 68767.253165                       # average overall miss latency ((Tick/Count))
system.cpu.icache.overallAvgMissLatency::total 68767.253165                       # average overall miss latency ((Tick/Count))
system.cpu.icache.blockedCycles::no_mshrs          417                       # number of cycles access was blocked (Cycle)
system.cpu.icache.blockedCycles::no_targets            0                       # number of cycles access was blocked (Cycle)
system.cpu.icache.blockedCauses::no_mshrs           14                       # number of times access was blocked (Count)
system.cpu.icache.blockedCauses::no_targets            0                       # number of times access was blocked (Count)
system.cpu.icache.avgBlocked::no_mshrs      29.785714                       # average number of cycles each access was blocked ((Cycle/Count))
system.cpu.icache.avgBlocked::no_targets          nan                       # average number of cycles each access was blocked ((Cycle/Count))
system.cpu.icache.demandMshrHits::cpu.inst          117                       # number of demand (read+write) MSHR hits (Count)
system.cpu.icache.demandMshrHits::total           117                       # number of demand (read+write) MSHR hits (Count)
system.cpu.icache.overallMshrHits::cpu.inst          117                       # number of overall MSHR hits (Count)
system.cpu.icache.overallMshrHits::total          117                       # number of overall MSHR hits (Count)
system.cpu.icache.demandMshrMisses::cpu.inst          357                       # number of demand (read+write) MSHR misses (Count)
system.cpu.icache.demandMshrMisses::total          357                       # number of demand (read+write) MSHR misses (Count)
system.cpu.icache.overallMshrMisses::cpu.inst          357                       # number of overall MSHR misses (Count)
system.cpu.icache.overallMshrMisses::total          357                       # number of overall MSHR misses (Count)
system.cpu.icache.demandMshrMissLatency::cpu.inst     25567766                       # number of demand (read+write) MSHR miss ticks (Tick)
system.cpu.icache.demandMshrMissLatency::total     25567766                       # number of demand (read+write) MSHR miss ticks (Tick)
system.cpu.icache.overallMshrMissLatency::cpu.inst     25567766                       # number of overall MSHR miss ticks (Tick)
system.cpu.icache.overallMshrMissLatency::total     25567766                       # number of overall MSHR miss ticks (Tick)
system.cpu.icache.demandMshrMissRate::cpu.inst     0.000002                       # mshr miss ratio for demand accesses (Ratio)
system.cpu.icache.demandMshrMissRate::total     0.000002                       # mshr miss ratio for demand accesses (Ratio)
system.cpu.icache.overallMshrMissRate::cpu.inst     0.000002                       # mshr miss ratio for overall accesses (Ratio)
system.cpu.icache.overallMshrMissRate::total     0.000002                       # mshr miss ratio for overall accesses (Ratio)
system.cpu.icache.demandAvgMshrMissLatency::cpu.inst 71618.392157                       # average overall mshr miss latency ((Tick/Count))
system.cpu.icache.demandAvgMshrMissLatency::total 71618.392157                       # average overall mshr miss latency ((Tick/Count))
system.cpu.icache.overallAvgMshrMissLatency::cpu.inst 71618.392157                       # average overall mshr miss latency ((Tick/Count))
system.cpu.icache.overallAvgMshrMissLatency::total 71618.392157                       # average overall mshr miss latency ((Tick/Count))
system.cpu.icache.replacements                     19                       # number of replacements (Count)
system.cpu.icache.ReadReq.hits::cpu.inst    155678781                       # number of ReadReq hits (Count)
system.cpu.icache.ReadReq.hits::total       155678781                       # number of ReadReq hits (Count)
system.cpu.icache.ReadReq.misses::cpu.inst          474                       # number of ReadReq misses (Count)
system.cpu.icache.ReadReq.misses::total           474                       # number of ReadReq misses (Count)
system.cpu.icache.ReadReq.missLatency::cpu.inst     32595678                       # number of ReadReq miss ticks (Tick)
system.cpu.icache.ReadReq.missLatency::total     32595678                       # number of ReadReq miss ticks (Tick)
system.cpu.icache.ReadReq.accesses::cpu.inst    155679255                       # number of ReadReq accesses(hits+misses) (Count)
system.cpu.icache.ReadReq.accesses::total    155679255                       # number of ReadReq accesses(hits+misses) (Count)
system.cpu.icache.ReadReq.missRate::cpu.inst     0.000003                       # miss rate for ReadReq accesses (Ratio)
system.cpu.icache.ReadReq.missRate::total     0.000003                       # miss rate for ReadReq accesses (Ratio)
system.cpu.icache.ReadReq.avgMissLatency::cpu.inst 68767.253165                       # average ReadReq miss latency ((Tick/Count))
system.cpu.icache.ReadReq.avgMissLatency::total 68767.253165                       # average ReadReq miss latency ((Tick/Count))
system.cpu.icache.ReadReq.mshrHits::cpu.inst          117                       # number of ReadReq MSHR hits (Count)
system.cpu.icache.ReadReq.mshrHits::total          117                       # number of ReadReq MSHR hits (Count)
system.cpu.icache.ReadReq.mshrMisses::cpu.inst          357                       # number of ReadReq MSHR misses (Count)
system.cpu.icache.ReadReq.mshrMisses::total          357                       # number of ReadReq MSHR misses (Count)
system.cpu.icache.ReadReq.mshrMissLatency::cpu.inst     25567766                       # number of ReadReq MSHR miss ticks (Tick)
system.cpu.icache.ReadReq.mshrMissLatency::total     25567766                       # number of ReadReq MSHR miss ticks (Tick)
system.cpu.icache.ReadReq.mshrMissRate::cpu.inst     0.000002                       # mshr miss rate for ReadReq accesses (Ratio)
system.cpu.icache.ReadReq.mshrMissRate::total     0.000002                       # mshr miss rate for ReadReq accesses (Ratio)
system.cpu.icache.ReadReq.avgMshrMissLatency::cpu.inst 71618.392157                       # average ReadReq mshr miss latency ((Tick/Count))
system.cpu.icache.ReadReq.avgMshrMissLatency::total 71618.392157                       # average ReadReq mshr miss latency ((Tick/Count))
system.cpu.icache.power_state.pwrStateResidencyTicks::UNDEFINED 389105145288                       # Cumulative time (in ticks) in various power states (Tick)
system.cpu.icache.tags.tagsInUse           328.530801                       # Average ticks per tags in use ((Tick/Count))
system.cpu.icache.tags.totalRefs            155679138                       # Total number of references to valid blocks. (Count)
system.cpu.icache.tags.sampledRefs                357                       # Sample count of references to valid blocks. (Count)
system.cpu.icache.tags.avgRefs           436076.016807                       # Average number of references to valid blocks. ((Count/Count))
system.cpu.icache.tags.warmupTick               81500                       # The tick when the warmup percentage was hit. (Tick)
system.cpu.icache.tags.occupancies::cpu.inst   328.530801                       # Average occupied blocks per tick, per requestor ((Count/Tick))
system.cpu.icache.tags.avgOccs::cpu.inst     0.641662                       # Average percentage of cache occupancy ((Ratio/Tick))
system.cpu.icache.tags.avgOccs::total        0.641662                       # Average percentage of cache occupancy ((Ratio/Tick))
system.cpu.icache.tags.occupanciesTaskId::1024          338                       # Occupied blocks per task id (Count)
system.cpu.icache.tags.ageTaskId_1024::4          338                       # Occupied blocks per task id, per block age (Count)
system.cpu.icache.tags.ratioOccsTaskId::1024     0.660156                       # Ratio of occupied blocks and all blocks, per task id (Ratio)
system.cpu.icache.tags.tagAccesses          622717377                       # Number of tag accesses (Count)
system.cpu.icache.tags.dataAccesses         622717377                       # Number of data accesses (Count)
system.cpu.icache.tags.power_state.pwrStateResidencyTicks::UNDEFINED 389105145288                       # Cumulative time (in ticks) in various power states (Tick)
system.cpu.iew.idleCycles                           0                       # Number of cycles IEW is idle (Cycle)
system.cpu.iew.squashCycles                  26133582                       # Number of cycles IEW is squashing (Cycle)
system.cpu.iew.blockCycles                   94136817                       # Number of cycles IEW is blocking (Cycle)
system.cpu.iew.unblockCycles                   499055                       # Number of cycles IEW is unblocking (Cycle)
system.cpu.iew.dispatchedInsts             1316894028                       # Number of instructions dispatched to IQ (Count)
system.cpu.iew.dispSquashedInsts              2091203                       # Number of squashed instructions skipped by dispatch (Count)
system.cpu.iew.dispLoadInsts                129993905                       # Number of dispatched load instructions (Count)
system.cpu.iew.dispStoreInsts               105836399                       # Number of dispatched store instructions (Count)
system.cpu.iew.dispNonSpecInsts                    71                       # Number of dispatched non-speculative instructions (Count)
system.cpu.iew.iqFullEvents                     82290                       # Number of times the IQ has become full, causing a stall (Count)
system.cpu.iew.lsqFullEvents                        3                       # Number of times the LSQ has become full, causing a stall (Count)
system.cpu.iew.memOrderViolationEvents           3948                       # Number of memory order violations (Count)
system.cpu.iew.predictedTakenIncorrect        4270068                       # Number of branches that were predicted taken incorrectly (Count)
system.cpu.iew.predictedNotTakenIncorrect     24181134                       # Number of branches that were predicted not taken incorrectly (Count)
system.cpu.iew.branchMispredicts             28451202                       # Number of branch mispredicts detected at execute (Count)
system.cpu.iew.instsToCommit               1245736592                       # Cumulative count of insts sent to commit (Count)
system.cpu.iew.writebackCount              1223663128                       # Cumulative count of insts written-back (Count)
system.cpu.iew.producerInst                 900150652                       # Number of instructions producing a value (Count)
system.cpu.iew.consumerInst                2478981580                       # Number of instructions consuming a value (Count)
system.cpu.iew.wbRate                        1.748516                       # Insts written-back per cycle ((Count/Cycle))
system.cpu.iew.wbFanout                      0.363113                       # Average fanout of values written-back ((Count/Count))
system.cpu.lsq0.forwLoads                    19963375                       # Number of loads that had data forwarded from stores (Count)
system.cpu.lsq0.squashedLoads                 9326094                       # Number of loads squashed (Count)
system.cpu.lsq0.ignoredResponses                  978                       # Number of memory responses ignored because the instruction is squashed (Count)
system.cpu.lsq0.memOrderViolation                3948                       # Number of memory ordering violations (Count)
system.cpu.lsq0.squashedStores                 715094                       # Number of stores squashed (Count)
system.cpu.lsq0.rescheduledLoads             29842012                       # Number of loads that were rescheduled (Count)
system.cpu.lsq0.blockedByCache                      7                       # Number of times an access to memory failed due to the cache being blocked (Count)
system.cpu.lsq0.loadToUse::samples          120667805                       # Distribution of cycle latency between the first time a load is issued and its completion (Unspecified)
system.cpu.lsq0.loadToUse::mean              6.065194                       # Distribution of cycle latency between the first time a load is issued and its completion (Unspecified)
system.cpu.lsq0.loadToUse::stdev            20.462234                       # Distribution of cycle latency between the first time a load is issued and its completion (Unspecified)
system.cpu.lsq0.loadToUse::0-9              115936918     96.08%     96.08% # Distribution of cycle latency between the first time a load is issued and its completion (Unspecified)
system.cpu.lsq0.loadToUse::10-19              3211262      2.66%     98.74% # Distribution of cycle latency between the first time a load is issued and its completion (Unspecified)
system.cpu.lsq0.loadToUse::20-29                  104      0.00%     98.74% # Distribution of cycle latency between the first time a load is issued and its completion (Unspecified)
system.cpu.lsq0.loadToUse::40-49                    2      0.00%     98.74% # Distribution of cycle latency between the first time a load is issued and its completion (Unspecified)
system.cpu.lsq0.loadToUse::70-79                    1      0.00%     98.74% # Distribution of cycle latency between the first time a load is issued and its completion (Unspecified)
system.cpu.lsq0.loadToUse::90-99                    3      0.00%     98.74% # Distribution of cycle latency between the first time a load is issued and its completion (Unspecified)
system.cpu.lsq0.loadToUse::100-109                  6      0.00%     98.74% # Distribution of cycle latency between the first time a load is issued and its completion (Unspecified)
system.cpu.lsq0.loadToUse::110-119                 17      0.00%     98.74% # Distribution of cycle latency between the first time a load is issued and its completion (Unspecified)
system.cpu.lsq0.loadToUse::120-129                257      0.00%     98.74% # Distribution of cycle latency between the first time a load is issued and its completion (Unspecified)
system.cpu.lsq0.loadToUse::130-139                 22      0.00%     98.74% # Distribution of cycle latency between the first time a load is issued and its completion (Unspecified)
system.cpu.lsq0.loadToUse::140-149             870557      0.72%     99.46% # Distribution of cycle latency between the first time a load is issued and its completion (Unspecified)
system.cpu.lsq0.loadToUse::150-159                336      0.00%     99.46% # Distribution of cycle latency between the first time a load is issued and its completion (Unspecified)
system.cpu.lsq0.loadToUse::160-169                368      0.00%     99.46% # Distribution of cycle latency between the first time a load is issued and its completion (Unspecified)
system.cpu.lsq0.loadToUse::170-179             619134      0.51%     99.98% # Distribution of cycle latency between the first time a load is issued and its completion (Unspecified)
system.cpu.lsq0.loadToUse::180-189                308      0.00%     99.98% # Distribution of cycle latency between the first time a load is issued and its completion (Unspecified)
system.cpu.lsq0.loadToUse::190-199                118      0.00%     99.98% # Distribution of cycle latency between the first time a load is issued and its completion (Unspecified)
system.cpu.lsq0.loadToUse::200-209                 58      0.00%     99.98% # Distribution of cycle latency between the first time a load is issued and its completion (Unspecified)
system.cpu.lsq0.loadToUse::210-219                 32      0.00%     99.98% # Distribution of cycle latency between the first time a load is issued and its completion (Unspecified)
system.cpu.lsq0.loadToUse::220-229                 86      0.00%     99.98% # Distribution of cycle latency between the first time a load is issued and its completion (Unspecified)
system.cpu.lsq0.loadToUse::230-239                176      0.00%     99.98% # Distribution of cycle latency between the first time a load is issued and its completion (Unspecified)
system.cpu.lsq0.loadToUse::240-249                 29      0.00%     99.98% # Distribution of cycle latency between the first time a load is issued and its completion (Unspecified)
system.cpu.lsq0.loadToUse::250-259                 21      0.00%     99.98% # Distribution of cycle latency between the first time a load is issued and its completion (Unspecified)
[...]
system.mem_ctrl.dram.perBankRdBursts::7         63788                       # Per bank write bursts (Count)
system.mem_ctrl.dram.perBankRdBursts::8         63795                       # Per bank write bursts (Count)
system.mem_ctrl.dram.perBankRdBursts::9         63851                       # Per bank write bursts (Count)
system.mem_ctrl.dram.perBankRdBursts::10        63810                       # Per bank write bursts (Count)
system.mem_ctrl.dram.perBankRdBursts::11        63804                       # Per bank write bursts (Count)
system.mem_ctrl.dram.perBankRdBursts::12        63789                       # Per bank write bursts (Count)
system.mem_ctrl.dram.perBankRdBursts::13        63815                       # Per bank write bursts (Count)
system.mem_ctrl.dram.perBankRdBursts::14        63798                       # Per bank write bursts (Count)
system.mem_ctrl.dram.perBankRdBursts::15        63790                       # Per bank write bursts (Count)
system.mem_ctrl.dram.perBankRdBursts::16        63784                       # Per bank write bursts (Count)
system.mem_ctrl.dram.perBankRdBursts::17        63784                       # Per bank write bursts (Count)
system.mem_ctrl.dram.perBankRdBursts::18        63788                       # Per bank write bursts (Count)
system.mem_ctrl.dram.perBankRdBursts::19        63785                       # Per bank write bursts (Count)
system.mem_ctrl.dram.perBankRdBursts::20        63791                       # Per bank write bursts (Count)
system.mem_ctrl.dram.perBankRdBursts::21        63784                       # Per bank write bursts (Count)
system.mem_ctrl.dram.perBankRdBursts::22        63784                       # Per bank write bursts (Count)
system.mem_ctrl.dram.perBankRdBursts::23        63784                       # Per bank write bursts (Count)
system.mem_ctrl.dram.perBankRdBursts::24        63784                       # Per bank write bursts (Count)
system.mem_ctrl.dram.perBankRdBursts::25        63784                       # Per bank write bursts (Count)
system.mem_ctrl.dram.perBankRdBursts::26        63787                       # Per bank write bursts (Count)
system.mem_ctrl.dram.perBankRdBursts::27        63785                       # Per bank write bursts (Count)
system.mem_ctrl.dram.perBankRdBursts::28        63784                       # Per bank write bursts (Count)
system.mem_ctrl.dram.perBankRdBursts::29        63821                       # Per bank write bursts (Count)
system.mem_ctrl.dram.perBankRdBursts::30        63798                       # Per bank write bursts (Count)
system.mem_ctrl.dram.perBankRdBursts::31        63810                       # Per bank write bursts (Count)
system.mem_ctrl.dram.perBankWrBursts::0         16394                       # Per bank write bursts (Count)
system.mem_ctrl.dram.perBankWrBursts::1         16387                       # Per bank write bursts (Count)
system.mem_ctrl.dram.perBankWrBursts::2         16513                       # Per bank write bursts (Count)
system.mem_ctrl.dram.perBankWrBursts::3         16262                       # Per bank write bursts (Count)
system.mem_ctrl.dram.perBankWrBursts::4         16384                       # Per bank write bursts (Count)
system.mem_ctrl.dram.perBankWrBursts::5         16384                       # Per bank write bursts (Count)
system.mem_ctrl.dram.perBankWrBursts::6         16384                       # Per bank write bursts (Count)
system.mem_ctrl.dram.perBankWrBursts::7         16384                       # Per bank write bursts (Count)
system.mem_ctrl.dram.perBankWrBursts::8         16384                       # Per bank write bursts (Count)
system.mem_ctrl.dram.perBankWrBursts::9         16384                       # Per bank write bursts (Count)
system.mem_ctrl.dram.perBankWrBursts::10        16384                       # Per bank write bursts (Count)
system.mem_ctrl.dram.perBankWrBursts::11        16384                       # Per bank write bursts (Count)
system.mem_ctrl.dram.perBankWrBursts::12        16384                       # Per bank write bursts (Count)
system.mem_ctrl.dram.perBankWrBursts::13        16384                       # Per bank write bursts (Count)
system.mem_ctrl.dram.perBankWrBursts::14        16384                       # Per bank write bursts (Count)
system.mem_ctrl.dram.perBankWrBursts::15        16384                       # Per bank write bursts (Count)
system.mem_ctrl.dram.perBankWrBursts::16        16384                       # Per bank write bursts (Count)
system.mem_ctrl.dram.perBankWrBursts::17        16384                       # Per bank write bursts (Count)
system.mem_ctrl.dram.perBankWrBursts::18        16384                       # Per bank write bursts (Count)
system.mem_ctrl.dram.perBankWrBursts::19        16384                       # Per bank write bursts (Count)
system.mem_ctrl.dram.perBankWrBursts::20        16384                       # Per bank write bursts (Count)
system.mem_ctrl.dram.perBankWrBursts::21        16384                       # Per bank write bursts (Count)
system.mem_ctrl.dram.perBankWrBursts::22        16384                       # Per bank write bursts (Count)
system.mem_ctrl.dram.perBankWrBursts::23        16384                       # Per bank write bursts (Count)
system.mem_ctrl.dram.perBankWrBursts::24        16384                       # Per bank write bursts (Count)
system.mem_ctrl.dram.perBankWrBursts::25        16384                       # Per bank write bursts (Count)
system.mem_ctrl.dram.perBankWrBursts::26        16384                       # Per bank write bursts (Count)
system.mem_ctrl.dram.perBankWrBursts::27        16384                       # Per bank write bursts (Count)
system.mem_ctrl.dram.perBankWrBursts::28        16384                       # Per bank write bursts (Count)
system.mem_ctrl.dram.perBankWrBursts::29        16413                       # Per bank write bursts (Count)
system.mem_ctrl.dram.perBankWrBursts::30        16397                       # Per bank write bursts (Count)
system.mem_ctrl.dram.perBankWrBursts::31        16394                       # Per bank write bursts (Count)
system.mem_ctrl.dram.totQLat              45323258582                       # Total ticks spent queuing (Tick)
system.mem_ctrl.dram.totBusLat             6809255208                       # Total ticks spent in databus transfers (Tick)
system.mem_ctrl.dram.totMemAccLat         81069804830                       # Total ticks spent from burst creation until serviced by the DRAM (Tick)
system.mem_ctrl.dram.avgQLat                 22178.21                       # Average queueing delay per DRAM burst ((Tick/Count))
system.mem_ctrl.dram.avgBusLat                3332.00                       # Average bus latency per DRAM burst ((Tick/Count))
system.mem_ctrl.dram.avgMemAccLat            39670.21                       # Average memory access latency per DRAM burst ((Tick/Count))
system.mem_ctrl.dram.readRowHits               462161                       # Number of row buffer hits during reads (Count)
system.mem_ctrl.dram.writeRowHits              437058                       # Number of row buffer hits during writes (Count)
system.mem_ctrl.dram.readRowHitRate             22.62                       # Row buffer hit rate for reads (Ratio)
system.mem_ctrl.dram.writeRowHitRate            83.35                       # Row buffer hit rate for writes (Ratio)
system.mem_ctrl.dram.bytesPerActivate::samples      1668735                       # Bytes accessed per row activation (Byte)
system.mem_ctrl.dram.bytesPerActivate::mean    98.487211                       # Bytes accessed per row activation (Byte)
system.mem_ctrl.dram.bytesPerActivate::gmean    72.955324                       # Bytes accessed per row activation (Byte)
system.mem_ctrl.dram.bytesPerActivate::stdev   153.845033                       # Bytes accessed per row activation (Byte)
system.mem_ctrl.dram.bytesPerActivate::0-127      1562057     93.61%     93.61% # Bytes accessed per row activation (Byte)
system.mem_ctrl.dram.bytesPerActivate::128-255        18887      1.13%     94.74% # Bytes accessed per row activation (Byte)
system.mem_ctrl.dram.bytesPerActivate::256-383         6993      0.42%     95.16% # Bytes accessed per row activation (Byte)
system.mem_ctrl.dram.bytesPerActivate::384-511        17843      1.07%     96.23% # Bytes accessed per row activation (Byte)
system.mem_ctrl.dram.bytesPerActivate::512-639        10344      0.62%     96.85% # Bytes accessed per row activation (Byte)
system.mem_ctrl.dram.bytesPerActivate::640-767        14596      0.87%     97.72% # Bytes accessed per row activation (Byte)
system.mem_ctrl.dram.bytesPerActivate::768-895         9455      0.57%     98.29% # Bytes accessed per row activation (Byte)
system.mem_ctrl.dram.bytesPerActivate::896-1023         5345      0.32%     98.61% # Bytes accessed per row activation (Byte)
system.mem_ctrl.dram.bytesPerActivate::1024-1151        23215      1.39%    100.00% # Bytes accessed per row activation (Byte)
system.mem_ctrl.dram.bytesPerActivate::total      1668735                       # Bytes accessed per row activation (Byte)
system.mem_ctrl.dram.bytesRead              130790016                       # Total bytes read (Byte)
system.mem_ctrl.dram.bytesWritten            33559040                       # Total bytes written (Byte)
system.mem_ctrl.dram.avgRdBW               336.130266                       # Average DRAM read bandwidth in MiBytes/s ((Byte/Second))
system.mem_ctrl.dram.avgWrBW                86.246714                       # Average DRAM write bandwidth in MiBytes/s ((Byte/Second))
system.mem_ctrl.dram.peakBW                  19207.00                       # Theoretical peak bandwidth in MiByte/s ((Byte/Second))
system.mem_ctrl.dram.busUtil                     2.20                       # Data bus utilization in percentage (Ratio)
system.mem_ctrl.dram.busUtilRead                 1.75                       # Data bus utilization in percentage for reads (Ratio)
system.mem_ctrl.dram.busUtilWrite                0.45                       # Data bus utilization in percentage for writes (Ratio)
system.mem_ctrl.dram.pageHitRate                35.02                       # Row buffer hit rate, read and write combined (Ratio)
system.mem_ctrl.dram.power_state.pwrStateResidencyTicks::UNDEFINED 389105145288                       # Cumulative time (in ticks) in various power states (Tick)
system.mem_ctrl.dram.rank0.actEnergy     2604762957.888208                       # Energy for activate commands per rank (pJ) (Joule)
system.mem_ctrl.dram.rank0.preEnergy     3462998958.115164                       # Energy for precharge commands per rank (pJ) (Joule)
system.mem_ctrl.dram.rank0.readEnergy    4302881214.777806                       # Energy for read commands per rank (pJ) (Joule)
system.mem_ctrl.dram.rank0.writeEnergy   985342345.343812                       # Energy for write commands per rank (pJ) (Joule)
system.mem_ctrl.dram.rank0.refreshEnergy 69234246919.259949                       # Energy for refresh commands per rank (pJ) (Joule)
system.mem_ctrl.dram.rank0.actBackEnergy 246705733929.764648                       # Energy for active background per rank (pJ) (Joule)
system.mem_ctrl.dram.rank0.preBackEnergy 64448631095.634232                       # Energy for precharge background per rank (pJ) (Joule)
system.mem_ctrl.dram.rank0.actPowerDownEnergy            0                       # Energy for active power-down per rank (pJ) (Joule)
system.mem_ctrl.dram.rank0.prePowerDownEnergy            0                       # Energy for precharge power-down per rank (pJ) (Joule)
system.mem_ctrl.dram.rank0.selfRefreshEnergy            0                       # Energy for self refresh per rank (pJ) (Joule)
system.mem_ctrl.dram.rank0.totalEnergy   391744597420.828552                       # Total energy per rank (pJ) (Joule)
system.mem_ctrl.dram.rank0.averagePower   1006.783390                       # Core power per rank (mW) (Watt)
system.mem_ctrl.dram.rank0.totalIdleTime            0                       # Total Idle time Per DRAM Rank (Tick)
system.mem_ctrl.dram.rank0.pwrStateTime::IDLE  97341373740                       # Time in different power states (Tick)
system.mem_ctrl.dram.rank0.pwrStateTime::REF  17491250000                       # Time in different power states (Tick)
system.mem_ctrl.dram.rank0.pwrStateTime::SREF            0                       # Time in different power states (Tick)
system.mem_ctrl.dram.rank0.pwrStateTime::PRE_PDN            0                       # Time in different power states (Tick)
system.mem_ctrl.dram.rank0.pwrStateTime::ACT 274272521548                       # Time in different power states (Tick)
system.mem_ctrl.dram.rank0.pwrStateTime::ACT_PDN            0                       # Time in different power states (Tick)
system.mem_ctrl.dram.rank1.actEnergy     2599607660.832197                       # Energy for activate commands per rank (pJ) (Joule)
system.mem_ctrl.dram.rank1.preEnergy     3456145056.772785                       # Energy for precharge commands per rank (pJ) (Joule)
system.mem_ctrl.dram.rank1.readEnergy    4293122559.801713                       # Energy for read commands per rank (pJ) (Joule)
system.mem_ctrl.dram.rank1.writeEnergy   985462617.215813                       # Energy for write commands per rank (pJ) (Joule)
system.mem_ctrl.dram.rank1.refreshEnergy 69234246919.259949                       # Energy for refresh commands per rank (pJ) (Joule)
system.mem_ctrl.dram.rank1.actBackEnergy 246273880184.384674                       # Energy for active background per rank (pJ) (Joule)
system.mem_ctrl.dram.rank1.preBackEnergy 64780450922.591629                       # Energy for precharge background per rank (pJ) (Joule)
system.mem_ctrl.dram.rank1.actPowerDownEnergy            0                       # Energy for active power-down per rank (pJ) (Joule)
system.mem_ctrl.dram.rank1.prePowerDownEnergy            0                       # Energy for precharge power-down per rank (pJ) (Joule)
system.mem_ctrl.dram.rank1.selfRefreshEnergy            0                       # Energy for self refresh per rank (pJ) (Joule)
system.mem_ctrl.dram.rank1.totalEnergy   391622915920.906494                       # Total energy per rank (pJ) (Joule)
system.mem_ctrl.dram.rank1.averagePower   1006.470669                       # Core power per rank (mW) (Watt)
system.mem_ctrl.dram.rank1.totalIdleTime            0                       # Total Idle time Per DRAM Rank (Tick)
system.mem_ctrl.dram.rank1.pwrStateTime::IDLE  97847079424                       # Time in different power states (Tick)
system.mem_ctrl.dram.rank1.pwrStateTime::REF  17491250000                       # Time in different power states (Tick)
system.mem_ctrl.dram.rank1.pwrStateTime::SREF            0                       # Time in different power states (Tick)
system.mem_ctrl.dram.rank1.pwrStateTime::PRE_PDN            0                       # Time in different power states (Tick)
system.mem_ctrl.dram.rank1.pwrStateTime::ACT 273766815864                       # Time in different power states (Tick)
system.mem_ctrl.dram.rank1.pwrStateTime::ACT_PDN            0                       # Time in different power states (Tick)
system.mem_ctrl.power_state.pwrStateResidencyTicks::UNDEFINED 389105145288                       # Cumulative time (in ticks) in various power states (Tick)
system.membus.transDist::ReadResp             1519067                       # Transaction distribution (Count)
system.membus.transDist::WritebackDirty        524417                       # Transaction distribution (Count)
system.membus.transDist::CleanEvict           1485943                       # Transaction distribution (Count)
system.membus.transDist::ReadExReq             524527                       # Transaction distribution (Count)
system.membus.transDist::ReadExResp            524527                       # Transaction distribution (Count)
system.membus.transDist::ReadSharedReq        1519067                       # Transaction distribution (Count)
system.membus.pktCount_system.l2cache.mem_side_port::system.mem_ctrl.port      6097548                       # Packet count per connected requestor and responder (Count)
system.membus.pktCount::total                 6097548                       # Packet count per connected requestor and responder (Count)
system.membus.pktSize_system.l2cache.mem_side_port::system.mem_ctrl.port    164352704                       # Cumulative packet size per connected requestor and responder (Byte)
system.membus.pktSize::total                164352704                       # Cumulative packet size per connected requestor and responder (Byte)
system.membus.snoops                                0                       # Total snoops (Count)
system.membus.snoopTraffic                          0                       # Total snoop traffic (Byte)
system.membus.snoopFanout::samples            2043594                       # Request fanout histogram (Count)
system.membus.snoopFanout::mean                     0                       # Request fanout histogram (Count)
system.membus.snoopFanout::stdev                    0                       # Request fanout histogram (Count)
system.membus.snoopFanout::underflows               0      0.00%      0.00% # Request fanout histogram (Count)
system.membus.snoopFanout::0                  2043594    100.00%    100.00% # Request fanout histogram (Count)
system.membus.snoopFanout::1                        0      0.00%    100.00% # Request fanout histogram (Count)
system.membus.snoopFanout::overflows                0      0.00%    100.00% # Request fanout histogram (Count)
system.membus.snoopFanout::min_value                0                       # Request fanout histogram (Count)
system.membus.snoopFanout::max_value                0                       # Request fanout histogram (Count)
system.membus.snoopFanout::total              2043594                       # Request fanout histogram (Count)
system.membus.power_state.pwrStateResidencyTicks::UNDEFINED 389105145288                       # Cumulative time (in ticks) in various power states (Tick)
system.membus.reqLayer0.occupancy          3509854360                       # Layer occupancy (ticks) (Tick)
system.membus.reqLayer0.utilization               0.0                       # Layer utilization (Ratio)
system.membus.respLayer0.occupancy         5554726670                       # Layer occupancy (ticks) (Tick)
system.membus.respLayer0.utilization              0.0                       # Layer utilization (Ratio)
system.membus.snoop_filter.totRequests        4053954                       # Total number of requests made to the snoop filter. (Count)
system.membus.snoop_filter.hitSingleRequests      2010360                       # Number of requests hitting in the snoop filter with a single holder of the requested data. (Count)
system.membus.snoop_filter.hitMultiRequests            0                       # Number of requests hitting in the snoop filter with multiple (>1) holders of the requested data. (Count)
system.membus.snoop_filter.totSnoops                0                       # Total number of snoops made to the snoop filter. (Count)
system.membus.snoop_filter.hitSingleSnoops            0                       # Number of snoops hitting in the snoop filter with a single holder of the requested data. (Count)
system.membus.snoop_filter.hitMultiSnoops            0                       # Number of snoops hitting in the snoop filter with multiple (>1) holders of the requested data. (Count)
system.workload.inst.arm                            0                       # number of arm instructions executed (Count)
system.workload.inst.quiesce                        0                       # number of quiesce instructions executed (Count)

---------- End Simulation Statistics   ----------
