
---------- Begin Simulation Statistics ----------
simSeconds                                   0.606769                       # Number of seconds simulated (Second)
simTicks                                 606768949259                       # Number of ticks simulated (Tick)
finalTick                                606768949259                       # Number of ticks from beginning of simulation (restored from checkpoints and never reset) (Tick)
simFreq                                  1000000000000                       # The number of ticks per simulated second ((Tick/Second))
hostSeconds                                   2938.18                       # Real time elapsed on the host (Second)
hostTickRate                                206511902                       # The number of ticks simulated per host second (ticks/s) ((Tick/Second))
hostMemory                                    2286848                       # Number of bytes of host memory used (Byte)
simInsts                                   1000000001                       # Number of instructions simulated (Count)
simOps                                     1177819171                       # Number of ops (including micro ops) simulated (Count)
hostInstRate                                   340347                       # Simulator instruction rate (inst/s) ((Count/Second))
hostOpRate                                     400867                       # Simulator op (including micro ops) rate (op/s) ((Count/Second))
system.clk_domain.clock                           500                       # Clock period in ticks (Tick)
system.clk_domain.voltage_domain.voltage            1                       # Voltage in Volts (Volt)
system.cpu.numCycles                        546146670                       # Number of cpu cycles simulated (Cycle)
system.cpu.numWorkItemsStarted                      0                       # Number of work items this cpu started (Count)
system.cpu.numWorkItemsCompleted                    0                       # Number of work items this cpu completed (Count)
system.cpu.instsAdded                      1306064115                       # Number of instructions added to the IQ (excludes non-spec) (Count)
system.cpu.nonSpecInstsAdded                      112                       # Number of non-speculative instructions added to the IQ (Count)
system.cpu.instsIssued                     1272731814                       # Number of instructions issued (Count)
system.cpu.squashedInstsIssued                   3843                       # Number of squashed instructions issued (Count)
system.cpu.squashedInstsExamined            128244986                       # Number of squashed instructions iterated over during squash; mainly for profiling (Count)
system.cpu.squashedOperandsExamined         317981175                       # Number of squashed operands that are examined and possibly removed from graph (Count)
system.cpu.squashedNonSpecRemoved                  16                       # Number of squashed non-spec instructions that were removed (Count)
system.cpu.numIssuedDist::samples           546139333                       # Number of insts issued each cycle (Count)
system.cpu.numIssuedDist::mean               2.330416                       # Number of insts issued each cycle (Count)
system.cpu.numIssuedDist::stdev              2.257225                       # Number of insts issued each cycle (Count)
system.cpu.numIssuedDist::underflows                0      0.00%      0.00% # Number of insts issued each cycle (Count)
system.cpu.numIssuedDist::0                 170787356     31.27%     31.27% # Number of insts issued each cycle (Count)
system.cpu.numIssuedDist::1                  66997810     12.27%     43.54% # Number of insts issued each cycle (Count)
system.cpu.numIssuedDist::2                  83622760     15.31%     58.85% # Number of insts issued each cycle (Count)
system.cpu.numIssuedDist::3                  69459427     12.72%     71.57% # Number of insts issued each cycle (Count)
system.cpu.numIssuedDist::4                  58463696     10.70%     82.27% # Number of insts issued each cycle (Count)
system.cpu.numIssuedDist::5                  33051166      6.05%     88.33% # Number of insts issued each cycle (Count)
system.cpu.numIssuedDist::6                  32846076      6.01%     94.34% # Number of insts issued each cycle (Count)
system.cpu.numIssuedDist::7                  13365203      2.45%     96.79% # Number of insts issued each cycle (Count)
system.cpu.numIssuedDist::8                  17545839      3.21%    100.00% # Number of insts issued each cycle (Count)
system.cpu.numIssuedDist::overflows                 0      0.00%    100.00% # Number of insts issued each cycle (Count)
system.cpu.numIssuedDist::min_value                 0                       # Number of insts issued each cycle (Count)
system.cpu.numIssuedDist::max_value                 8                       # Number of insts issued each cycle (Count)
system.cpu.numIssuedDist::total             546139333                       # Number of insts issued each cycle (Count)
system.cpu.statFuBusy::No_OpClass                   0      0.00%      0.00% # attempts to use FU when none available (Count)
system.cpu.statFuBusy::IntAlu                 7995312     85.83%     85.83% # attempts to use FU when none available (Count)
system.cpu.statFuBusy::IntMult                      0      0.00%     85.83% # attempts to use FU when none available (Count)
system.cpu.statFuBusy::IntDiv                       0      0.00%     85.83% # attempts to use FU when none available (Count)
system.cpu.statFuBusy::FloatAdd                     0      0.00%     85.83% # attempts to use FU when none available (Count)
system.cpu.statFuBusy::FloatCmp                     0      0.00%     85.83% # attempts to use FU when none available (Count)
system.cpu.statFuBusy::FloatCvt                     0      0.00%     85.83% # attempts to use FU when none available (Count)
system.cpu.statFuBusy::FloatMult                    0      0.00%     85.83% # attempts to use FU when none available (Count)
system.cpu.statFuBusy::FloatMultAcc                 0      0.00%     85.83% # attempts to use FU when none available (Count)
system.cpu.statFuBusy::FloatDiv                     0      0.00%     85.83% # attempts to use FU when none available (Count)
system.cpu.statFuBusy::FloatMisc                    0      0.00%     85.83% # attempts to use FU when none available (Count)
system.cpu.statFuBusy::FloatSqrt                    0      0.00%     85.83% # attempts to use FU when none available (Count)
system.cpu.statFuBusy::SimdAdd                      0      0.00%     85.83% # attempts to use FU when none available (Count)
system.cpu.statFuBusy::SimdAddAcc                   0      0.00%     85.83% # attempts to use FU when none available (Count)
system.cpu.statFuBusy::SimdAlu                      0      0.00%     85.83% # attempts to use FU when none available (Count)
system.cpu.statFuBusy::SimdCmp                      0      0.00%     85.83% # attempts to use FU when none available (Count)
system.cpu.statFuBusy::SimdCvt                      0      0.00%     85.83% # attempts to use FU when none available (Count)
system.cpu.statFuBusy::SimdMisc                     0      0.00%     85.83% # attempts to use FU when none available (Count)
system.cpu.statFuBusy::SimdMult                     0      0.00%     85.83% # attempts to use FU when none available (Count)
system.cpu.statFuBusy::SimdMultAcc                  0      0.00%     85.83% # attempts to use FU when none available (Count)
system.cpu.statFuBusy::SimdShift                    0      0.00%     85.83% # attempts to use FU when none available (Count)
system.cpu.statFuBusy::SimdShiftAcc                 0      0.00%     85.83% # attempts to use FU when none available (Count)
system.cpu.statFuBusy::SimdDiv                      0      0.00%     85.83% # attempts to use FU when none available (Count)
system.cpu.statFuBusy::SimdSqrt                     0      0.00%     85.83% # attempts to use FU when none available (Count)
system.cpu.statFuBusy::SimdFloatAdd                 0      0.00%     85.83% # attempts to use FU when none available (Count)
system.cpu.statFuBusy::SimdFloatAlu                 0      0.00%     85.83% # attempts to use FU when none available (Count)
system.cpu.statFuBusy::SimdFloatCmp                 0      0.00%     85.83% # attempts to use FU when none available (Count)
system.cpu.statFuBusy::SimdFloatCvt                 0      0.00%     85.83% # attempts to use FU when none available (Count)
system.cpu.statFuBusy::SimdFloatDiv                 0      0.00%     85.83% # attempts to use FU when none available (Count)
system.cpu.statFuBusy::SimdFloatMisc                0      0.00%     85.83% # attempts to use FU when none available (Count)
system.cpu.statFuBusy::SimdFloatMult                0      0.00%     85.83% # attempts to use FU when none available (Count)
system.cpu.statFuBusy::SimdFloatMultAcc             0      0.00%     85.83% # attempts to use FU when none available (Count)
system.cpu.statFuBusy::SimdFloatSqrt                0      0.00%     85.83% # attempts to use FU when none available (Count)
system.cpu.statFuBusy::SimdReduceAdd                0      0.00%     85.83% # attempts to use FU when none available (Count)
system.cpu.statFuBusy::SimdReduceAlu                0      0.00%     85.83% # attempts to use FU when none available (Count)
system.cpu.statFuBusy::SimdReduceCmp                0      0.00%     85.83% # attempts to use FU when none available (Count)
system.cpu.statFuBusy::SimdFloatReduceAdd            0      0.00%     85.83% # attempts to use FU when none available (Count)
system.cpu.statFuBusy::SimdFloatReduceCmp            0      0.00%     85.83% # attempts to use FU when none available (Count)
system.cpu.statFuBusy::SimdAes                      0      0.00%     85.83% # attempts to use FU when none available (Count)
system.cpu.statFuBusy::SimdAesMix                   0      0.00%     85.83% # attempts to use FU when none available (Count)
system.cpu.statFuBusy::SimdSha1Hash                 0      0.00%     85.83% # attempts to use FU when none available (Count)
system.cpu.statFuBusy::SimdSha1Hash2                0      0.00%     85.83% # attempts to use FU when none available (Count)
system.cpu.statFuBusy::SimdSha256Hash               0      0.00%     85.83% # attempts to use FU when none available (Count)
system.cpu.statFuBusy::SimdSha256Hash2              0      0.00%     85.83% # attempts to use FU when none available (Count)
system.cpu.statFuBusy::SimdShaSigma2                0      0.00%     85.83% # attempts to use FU when none available (Count)
system.cpu.statFuBusy::SimdShaSigma3                0      0.00%     85.83% # attempts to use FU when none available (Count)
system.cpu.statFuBusy::SimdPredAlu                  0      0.00%     85.83% # attempts to use FU when none available (Count)
system.cpu.statFuBusy::MemRead                1281276     13.75%     99.58% # attempts to use FU when none available (Count)
system.cpu.statFuBusy::MemWrite                 38953      0.42%    100.00% # attempts to use FU when none available (Count)
system.cpu.statFuBusy::FloatMemRead                 0      0.00%    100.00% # attempts to use FU when none available (Count)
system.cpu.statFuBusy::FloatMemWrite                0      0.00%    100.00% # attempts to use FU when none available (Count)
system.cpu.statFuBusy::IprAccess                    0      0.00%    100.00% # attempts to use FU when none available (Count)
system.cpu.statFuBusy::InstPrefetch                 0      0.00%    100.00% # attempts to use FU when none available (Count)
system.cpu.statIssuedInstType_0::No_OpClass     11633128      0.91%      0.91% # Number of instructions issued per FU type, per thread (Count)
system.cpu.statIssuedInstType_0::IntAlu     970568611     76.26%     77.17% # Number of instructions issued per FU type, per thread (Count)
system.cpu.statIssuedInstType_0::IntMult     24488412      1.92%     79.10% # Number of instructions issued per FU type, per thread (Count)
system.cpu.statIssuedInstType_0::IntDiv             0      0.00%     79.10% # Number of instructions issued per FU type, per thread (Count)
system.cpu.statIssuedInstType_0::FloatAdd            0      0.00%     79.10% # Number of instructions issued per FU type, per thread (Count)
system.cpu.statIssuedInstType_0::FloatCmp            0      0.00%     79.10% # Number of instructions issued per FU type, per thread (Count)
system.cpu.statIssuedInstType_0::FloatCvt            0      0.00%     79.10% # Number of instructions issued per FU type, per thread (Count)
system.cpu.statIssuedInstType_0::FloatMult            0      0.00%     79.10% # Number of instructions issued per FU type, per thread (Count)
system.cpu.statIssuedInstType_0::FloatMultAcc            0      0.00%     79.10% # Number of instructions issued per FU type, per thread (Count)
system.cpu.statIssuedInstType_0::FloatDiv            0      0.00%     79.10% # Number of instructions issued per FU type, per thread (Count)
system.cpu.statIssuedInstType_0::FloatMisc            0      0.00%     79.10% # Number of instructions issued per FU type, per thread (Count)
system.cpu.statIssuedInstType_0::FloatSqrt            0      0.00%     79.10% # Number of instructions issued per FU type, per thread (Count)
system.cpu.statIssuedInstType_0::SimdAdd            0      0.00%     79.10% # Number of instructions issued per FU type, per thread (Count)
system.cpu.statIssuedInstType_0::SimdAddAcc            0      0.00%     79.10% # Number of instructions issued per FU type, per thread (Count)
system.cpu.statIssuedInstType_0::SimdAlu            0      0.00%     79.10% # Number of instructions issued per FU type, per thread (Count)
system.cpu.statIssuedInstType_0::SimdCmp            0      0.00%     79.10% # Number of instructions issued per FU type, per thread (Count)
system.cpu.statIssuedInstType_0::SimdCvt            0      0.00%     79.10% # Number of instructions issued per FU type, per thread (Count)
system.cpu.statIssuedInstType_0::SimdMisc            0      0.00%     79.10% # Number of instructions issued per FU type, per thread (Count)
system.cpu.statIssuedInstType_0::SimdMult            0      0.00%     79.10% # Number of instructions issued per FU type, per thread (Count)
system.cpu.statIssuedInstType_0::SimdMultAcc            0      0.00%     79.10% # Number of instructions issued per FU type, per thread (Count)
system.cpu.statIssuedInstType_0::SimdShift            0      0.00%     79.10% # Number of instructions issued per FU type, per thread (Count)
system.cpu.statIssuedInstType_0::SimdShiftAcc            0      0.00%     79.10% # Number of instructions issued per FU type, per thread (Count)
system.cpu.statIssuedInstType_0::SimdDiv            0      0.00%     79.10% # Number of instructions issued per FU type, per thread (Count)
system.cpu.statIssuedInstType_0::SimdSqrt            0      0.00%     79.10% # Number of instructions issued per FU type, per thread (Count)
system.cpu.statIssuedInstType_0::SimdFloatAdd            0      0.00%     79.10% # Number of instructions issued per FU type, per thread (Count)
system.cpu.statIssuedInstType_0::SimdFloatAlu            0      0.00%     79.10% # Number of instructions issued per FU type, per thread (Count)
system.cpu.statIssuedInstType_0::SimdFloatCmp            0      0.00%     79.10% # Number of instructions issued per FU type, per thread (Count)
system.cpu.statIssuedInstType_0::SimdFloatCvt            0      0.00%     79.10% # Number of instructions issued per FU type, per thread (Count)
system.cpu.statIssuedInstType_0::SimdFloatDiv            0      0.00%     79.10% # Number of instructions issued per FU type, per thread (Count)
system.cpu.statIssuedInstType_0::SimdFloatMisc            0      0.00%     79.10% # Number of instructions issued per FU type, per thread (Count)
system.cpu.statIssuedInstType_0::SimdFloatMult            0      0.00%     79.10% # Number of instructions issued per FU type, per thread (Count)
system.cpu.statIssuedInstType_0::SimdFloatMultAcc            0      0.00%     79.10% # Number of instructions issued per FU type, per thread (Count)
system.cpu.statIssuedInstType_0::SimdFloatSqrt            0      0.00%     79.10% # Number of instructions issued per FU type, per thread (Count)
system.cpu.statIssuedInstType_0::SimdReduceAdd            0      0.00%     79.10% # Number of instructions issued per FU type, per thread (Count)
system.cpu.statIssuedInstType_0::SimdReduceAlu            0      0.00%     79.10% # Number of instructions issued per FU type, per thread (Count)
system.cpu.statIssuedInstType_0::SimdReduceCmp            0      0.00%     79.10% # Number of instructions issued per FU type, per thread (Count)
system.cpu.statIssuedInstType_0::SimdFloatReduceAdd            0      0.00%     79.10% # Number of instructions issued per FU type, per thread (Count)
system.cpu.statIssuedInstType_0::SimdFloatReduceCmp            0      0.00%     79.10% # Number of instructions issued per FU type, per thread (Count)
system.cpu.statIssuedInstType_0::SimdAes            0      0.00%     79.10% # Number of instructions issued per FU type, per thread (Count)
system.cpu.statIssuedInstType_0::SimdAesMix            0      0.00%     79.10% # Number of instructions issued per FU type, per thread (Count)
system.cpu.statIssuedInstType_0::SimdSha1Hash            0      0.00%     79.10% # Number of instructions issued per FU type, per thread (Count)
system.cpu.statIssuedInstType_0::SimdSha1Hash2            0      0.00%     79.10% # Number of instructions issued per FU type, per thread (Count)
system.cpu.statIssuedInstType_0::SimdSha256Hash            0      0.00%     79.10% # Number of instructions issued per FU type, per thread (Count)
system.cpu.statIssuedInstType_0::SimdSha256Hash2            0      0.00%     79.10% # Number of instructions issued per FU type, per thread (Count)
system.cpu.statIssuedInstType_0::SimdShaSigma2            0      0.00%     79.10% # Number of instructions issued per FU type, per thread (Count)
system.cpu.statIssuedInstType_0::SimdShaSigma3            0      0.00%     79.10% # Number of instructions issued per FU type, per thread (Count)
system.cpu.statIssuedInstType_0::SimdPredAlu            0      0.00%     79.10% # Number of instructions issued per FU type, per thread (Count)
system.cpu.statIssuedInstType_0::MemRead    160710986     12.63%     91.72% # Number of instructions issued per FU type, per thread (Count)
system.cpu.statIssuedInstType_0::MemWrite    105330677      8.28%    100.00% # Number of instructions issued per FU type, per thread (Count)
system.cpu.statIssuedInstType_0::FloatMemRead            0      0.00%    100.00% # Number of instructions issued per FU type, per thread (Count)
system.cpu.statIssuedInstType_0::FloatMemWrite            0      0.00%    100.00% # Number of instructions issued per FU type, per thread (Count)
system.cpu.statIssuedInstType_0::IprAccess            0      0.00%    100.00% # Number of instructions issued per FU type, per thread (Count)
system.cpu.statIssuedInstType_0::InstPrefetch            0      0.00%    100.00% # Number of instructions issued per FU type, per thread (Count)
system.cpu.statIssuedInstType_0::total     1272731814                       # Number of instructions issued per FU type, per thread (Count)
system.cpu.issueRate                         2.330385                       # Inst issue rate ((Count/Cycle))
system.cpu.fuBusy                             9315541                       # FU busy when requested (Count)
system.cpu.fuBusyRate                        0.007319                       # FU busy rate (busy events/executed inst) ((Count/Count))
system.cpu.intInstQueueReads               3100922343                       # Number of integer instruction queue reads (Count)
system.cpu.intInstQueueWrites              1434313647                       # Number of integer instruction queue writes (Count)
system.cpu.intInstQueueWakeupAccesses      1223615879                       # Number of integer instruction queue wakeup accesses (Count)
system.cpu.fpInstQueueReads                         0                       # Number of floating instruction queue reads (Count)
system.cpu.fpInstQueueWrites                        0                       # Number of floating instruction queue writes (Count)
system.cpu.fpInstQueueWakeupAccesses                0                       # Number of floating instruction queue wakeup accesses (Count)
system.cpu.vecInstQueueReads                        0                       # Number of vector instruction queue reads (Count)
system.cpu.vecInstQueueWrites                       0                       # Number of vector instruction queue writes (Count)
system.cpu.vecInstQueueWakeupAccesses               0                       # Number of vector instruction queue wakeup accesses (Count)
system.cpu.intAluAccesses                  1270414227                       # Number of integer alu accesses (Count)
system.cpu.fpAluAccesses                            0                       # Number of floating point alu accesses (Count)
system.cpu.vecAluAccesses                           0                       # Number of vector alu accesses (Count)
system.cpu.numInsts                        1270509745                       # Number of executed instructions (Count)
system.cpu.numLoadInsts                     160660729                       # Number of load instructions executed (Count)
system.cpu.numSquashedInsts                   2222067                       # Number of squashed instructions skipped in execute (Count)
system.cpu.numSwp                                   0                       # Number of swp insts executed (Count)
system.cpu.numNop                                   0                       # Number of nop insts executed (Count)
system.cpu.numRefs                          265972587                       # Number of memory reference insts executed (Count)
system.cpu.numBranches                      144656932                       # Number of branches executed (Count)
system.cpu.numStoreInsts                    105311858                       # Number of stores executed (Count)
system.cpu.numRate                           2.326316                       # Inst execution rate ((Count/Cycle))
system.cpu.timesIdled                             184                       # Number of times that the entire CPU went into an idle state and unscheduled itself (Count)
system.cpu.idleCycles                            7337                       # Total number of cycles that the CPU has spent unscheduled due to idling (Cycle)
system.cpu.committedInsts                  1000000001                       # Number of Instructions Simulated (Count)
system.cpu.committedOps                    1177819171                       # Number of Ops (including micro ops) Simulated (Count)
system.cpu.cpi                               0.546147                       # CPI: Cycles Per Instruction ((Cycle/Count))
system.cpu.totalCpi                          0.546147                       # CPI: Total CPI of All Threads ((Cycle/Count))
system.cpu.ipc                               1.831010                       # IPC: Instructions Per Cycle ((Count/Cycle))
system.cpu.totalIpc                          1.831010                       # IPC: Total IPC of All Threads ((Count/Cycle))
system.cpu.intRegfileReads                 1629964926                       # Number of integer regfile reads (Count)
system.cpu.intRegfileWrites                 995934123                       # Number of integer regfile writes (Count)
system.cpu.vecRegfileReads                         16                       # number of vector regfile reads (Count)
system.cpu.ccRegfileReads                  4185567858                       # number of cc regfile reads (Count)
system.cpu.ccRegfileWrites                  503594446                       # number of cc regfile writes (Count)
system.cpu.miscRegfileReads                 227754863                       # number of misc regfile reads (Count)
system.cpu.miscRegfileWrites                      165                       # number of misc regfile writes (Count)
system.cpu.MemDepUnit__0.insertedLoads      130015304                       # Number of loads inserted to the mem dependence unit. (Count)
system.cpu.MemDepUnit__0.insertedStores     105826722                       # Number of stores inserted to the mem dependence unit. (Count)
system.cpu.MemDepUnit__0.conflictingLoads     43186594                       # Number of conflicting loads. (Count)
system.cpu.MemDepUnit__0.conflictingStores     37300390                       # Number of conflicting stores. (Count)
system.cpu.MemDepUnit__1.insertedLoads              0                       # Number of loads inserted to the mem dependence unit. (Count)
system.cpu.MemDepUnit__1.insertedStores             0                       # Number of stores inserted to the mem dependence unit. (Count)
system.cpu.MemDepUnit__1.conflictingLoads            0                       # Number of conflicting loads. (Count)
system.cpu.MemDepUnit__1.conflictingStores            0                       # Number of conflicting stores. (Count)
system.cpu.MemDepUnit__2.insertedLoads              0                       # Number of loads inserted to the mem dependence unit. (Count)
system.cpu.MemDepUnit__2.insertedStores             0                       # Number of stores inserted to the mem dependence unit. (Count)
system.cpu.MemDepUnit__2.conflictingLoads            0                       # Number of conflicting loads. (Count)
system.cpu.MemDepUnit__2.conflictingStores            0                       # Number of conflicting stores. (Count)
system.cpu.MemDepUnit__3.insertedLoads              0                       # Number of loads inserted to the mem dependence unit. (Count)
system.cpu.MemDepUnit__3.insertedStores             0                       # Number of stores inserted to the mem dependence unit. (Count)
system.cpu.MemDepUnit__3.conflictingLoads            0                       # Number of conflicting loads. (Count)
system.cpu.MemDepUnit__3.conflictingStores            0                       # Number of conflicting stores. (Count)
system.cpu.branchPred.lookups               153236863                       # Number of BP lookups (Count)
system.cpu.branchPred.condPredicted         101147413                       # Number of conditional branches predicted (Count)
system.cpu.branchPred.condIncorrect           4382219                       # Number of conditional branches incorrect (Count)
system.cpu.branchPred.BTBLookups             77025177                       # Number of BTB lookups (Count)
system.cpu.branchPred.BTBHits                77024383                       # Number of BTB hits (Count)
system.cpu.branchPred.BTBHitRatio            0.999990                       # BTB Hit Ratio (Ratio)
system.cpu.branchPred.RASUsed                27958637                       # Number of times the RAS was used to get a target. (Count)
system.cpu.branchPred.RASIncorrect            4206357                       # Number of incorrect RAS predictions. (Count)
system.cpu.branchPred.indirectLookups             176                       # Number of indirect predictor lookups. (Count)
system.cpu.branchPred.indirectHits                 35                       # Number of indirect target hits. (Count)
system.cpu.branchPred.indirectMisses              141                       # Number of indirect misses. (Count)
system.cpu.branchPred.indirectMispredicted           62                       # Number of mispredicted indirect branches. (Count)
system.cpu.commit.commitSquashedInsts       127861046                       # The number of squashed insts skipped by commit (Count)
system.cpu.commit.commitNonSpecStalls              96                       # The number of times commit has been forced to stall to communicate backwards (Count)
system.cpu.commit.branchMispredicts          15436815                       # The number of times a branch was mispredicted (Count)
system.cpu.commit.numCommittedDist::samples    514674928                       # Number of insts commited each cycle (Count)
system.cpu.commit.numCommittedDist::mean     2.288472                       # Number of insts commited each cycle (Count)
system.cpu.commit.numCommittedDist::stdev     2.779968                       # Number of insts commited each cycle (Count)
system.cpu.commit.numCommittedDist::underflows            0      0.00%      0.00% # Number of insts commited each cycle (Count)
system.cpu.commit.numCommittedDist::0       200494502     38.96%     38.96% # Number of insts commited each cycle (Count)
system.cpu.commit.numCommittedDist::1        98646524     19.17%     58.12% # Number of insts commited each cycle (Count)
system.cpu.commit.numCommittedDist::2        33885161      6.58%     64.71% # Number of insts commited each cycle (Count)
system.cpu.commit.numCommittedDist::3        50643059      9.84%     74.55% # Number of insts commited each cycle (Count)
system.cpu.commit.numCommittedDist::4        26056305      5.06%     79.61% # Number of insts commited each cycle (Count)
system.cpu.commit.numCommittedDist::5        13031679      2.53%     82.14% # Number of insts commited each cycle (Count)
system.cpu.commit.numCommittedDist::6        18153946      3.53%     85.67% # Number of insts commited each cycle (Count)
system.cpu.commit.numCommittedDist::7         8944159      1.74%     87.41% # Number of insts commited each cycle (Count)
system.cpu.commit.numCommittedDist::8        64819593     12.59%    100.00% # Number of insts commited each cycle (Count)
system.cpu.commit.numCommittedDist::overflows            0      0.00%    100.00% # Number of insts commited each cycle (Count)
system.cpu.commit.numCommittedDist::min_value            0                       # Number of insts commited each cycle (Count)
system.cpu.commit.numCommittedDist::max_value            8                       # Number of insts commited each cycle (Count)
system.cpu.commit.numCommittedDist::total    514674928                       # Number of insts commited each cycle (Count)
system.cpu.commit.instsCommitted           1000000001                       # Number of instructions committed (Count)
system.cpu.commit.opsCommitted             1177819171                       # Number of ops (including micro ops) committed (Count)
system.cpu.commit.memRefs                   225789107                       # Number of memory references committed (Count)
system.cpu.commit.loads                     120667805                       # Number of loads committed (Count)
system.cpu.commit.amos                              0                       # Number of atomic instructions committed (Count)
system.cpu.commit.membars                          42                       # Number of memory barriers committed (Count)
system.cpu.commit.branches                  139955285                       # Number of branches committed (Count)
system.cpu.commit.vectorInstructions                0                       # Number of committed Vector instructions. (Count)
system.cpu.commit.floating                          0                       # Number of committed floating point instructions. (Count)
system.cpu.commit.integer                  1114424375                       # Number of committed integer instructions. (Count)
system.cpu.commit.functionCalls              36944233                       # Number of function calls committed. (Count)
system.cpu.commit.committedInstType_0::No_OpClass            0      0.00%      0.00% # Class of committed instruction (Count)
system.cpu.commit.committedInstType_0::IntAlu    931875767     79.12%     79.12% # Class of committed instruction (Count)
system.cpu.commit.committedInstType_0::IntMult     20154297      1.71%     80.83% # Class of committed instruction (Count)
system.cpu.commit.committedInstType_0::IntDiv            0      0.00%     80.83% # Class of committed instruction (Count)
system.cpu.commit.committedInstType_0::FloatAdd            0      0.00%     80.83% # Class of committed instruction (Count)
system.cpu.commit.committedInstType_0::FloatCmp            0      0.00%     80.83% # Class of committed instruction (Count)
system.cpu.commit.committedInstType_0::FloatCvt            0      0.00%     80.83% # Class of committed instruction (Count)
system.cpu.commit.committedInstType_0::FloatMult            0      0.00%     80.83% # Class of committed instruction (Count)
system.cpu.commit.committedInstType_0::FloatMultAcc            0      0.00%     80.83% # Class of committed instruction (Count)
system.cpu.commit.committedInstType_0::FloatDiv            0      0.00%     80.83% # Class of committed instruction (Count)
system.cpu.commit.committedInstType_0::FloatMisc            0      0.00%     80.83% # Class of committed instruction (Count)
system.cpu.commit.committedInstType_0::FloatSqrt            0      0.00%     80.83% # Class of committed instruction (Count)
system.cpu.commit.committedInstType_0::SimdAdd            0      0.00%     80.83% # Class of committed instruction (Count)
system.cpu.commit.committedInstType_0::SimdAddAcc            0      0.00%     80.83% # Class of committed instruction (Count)
system.cpu.commit.committedInstType_0::SimdAlu            0      0.00%     80.83% # Class of committed instruction (Count)
system.cpu.commit.committedInstType_0::SimdCmp            0      0.00%     80.83% # Class of committed instruction (Count)
system.cpu.commit.committedInstType_0::SimdCvt            0      0.00%     80.83% # Class of committed instruction (Count)
system.cpu.commit.committedInstType_0::SimdMisc            0      0.00%     80.83% # Class of committed instruction (Count)
system.cpu.commit.committedInstType_0::SimdMult            0      0.00%     80.83% # Class of committed instruction (Count)
system.cpu.commit.committedInstType_0::SimdMultAcc            0      0.00%     80.83% # Class of committed instruction (Count)
system.cpu.commit.committedInstType_0::SimdShift            0      0.00%     80.83% # Class of committed instruction (Count)
system.cpu.commit.committedInstType_0::SimdShiftAcc            0      0.00%     80.83% # Class of committed instruction (Count)
system.cpu.commit.committedInstType_0::SimdDiv            0      0.00%     80.83% # Class of committed instruction (Count)
system.cpu.commit.committedInstType_0::SimdSqrt            0      0.00%     80.83% # Class of committed instruction (Count)
system.cpu.commit.committedInstType_0::SimdFloatAdd            0      0.00%     80.83% # Class of committed instruction (Count)
system.cpu.commit.committedInstType_0::SimdFloatAlu            0      0.00%     80.83% # Class of committed instruction (Count)
system.cpu.commit.committedInstType_0::SimdFloatCmp            0      0.00%     80.83% # Class of committed instruction (Count)
system.cpu.commit.committedInstType_0::SimdFloatCvt            0      0.00%     80.83% # Class of committed instruction (Count)
system.cpu.commit.committedInstType_0::SimdFloatDiv            0      0.00%     80.83% # Class of committed instruction (Count)
system.cpu.commit.committedInstType_0::SimdFloatMisc            0      0.00%     80.83% # Class of committed instruction (Count)
system.cpu.commit.committedInstType_0::SimdFloatMult            0      0.00%     80.83% # Class of committed instruction (Count)
system.cpu.commit.committedInstType_0::SimdFloatMultAcc            0      0.00%     80.83% # Class of committed instruction (Count)
system.cpu.commit.committedInstType_0::SimdFloatSqrt            0      0.00%     80.83% # Class of committed instruction (Count)
system.cpu.commit.committedInstType_0::SimdReduceAdd            0      0.00%     80.83% # Class of committed instruction (Count)
system.cpu.commit.committedInstType_0::SimdReduceAlu            0      0.00%     80.83% # Class of committed instruction (Count)
system.cpu.commit.committedInstType_0::SimdReduceCmp            0      0.00%     80.83% # Class of committed instruction (Count)
system.cpu.commit.committedInstType_0::SimdFloatReduceAdd            0      0.00%     80.83% # Class of committed instruction (Count)
system.cpu.commit.committedInstType_0::SimdFloatReduceCmp            0      0.00%     80.83% # Class of committed instruction (Count)
system.cpu.commit.committedInstType_0::SimdAes            0      0.00%     80.83% # Class of committed instruction (Count)
system.cpu.commit.committedInstType_0::SimdAesMix            0      0.00%     80.83% # Class of committed instruction (Count)
system.cpu.commit.committedInstType_0::SimdSha1Hash            0      0.00%     80.83% # Class of committed instruction (Count)
system.cpu.commit.committedInstType_0::SimdSha1Hash2            0      0.00%     80.83% # Class of committed instruction (Count)
system.cpu.commit.committedInstType_0::SimdSha256Hash            0      0.00%     80.83% # Class of committed instruction (Count)
system.cpu.commit.committedInstType_0::SimdSha256Hash2            0      0.00%     80.83% # Class of committed instruction (Count)
system.cpu.commit.committedInstType_0::SimdShaSigma2            0      0.00%     80.83% # Class of committed instruction (Count)
system.cpu.commit.committedInstType_0::SimdShaSigma3            0      0.00%     80.83% # Class of committed instruction (Count)
system.cpu.commit.committedInstType_0::SimdPredAlu            0      0.00%     80.83% # Class of committed instruction (Count)
system.cpu.commit.committedInstType_0::MemRead    120667805     10.25%     91.07% # Class of committed instruction (Count)
system.cpu.commit.committedInstType_0::MemWrite    105121302      8.93%    100.00% # Class of committed instruction (Count)
system.cpu.commit.committedInstType_0::FloatMemRead            0      0.00%    100.00% # Class of committed instruction (Count)
system.cpu.commit.committedInstType_0::FloatMemWrite            0      0.00%    100.00% # Class of committed instruction (Count)
system.cpu.commit.committedInstType_0::IprAccess            0      0.00%    100.00% # Class of committed instruction (Count)
system.cpu.commit.committedInstType_0::InstPrefetch            0      0.00%    100.00% # Class of committed instruction (Count)
system.cpu.commit.committedInstType_0::total   1177819171                       # Class of committed instruction (Count)
system.cpu.commit.commitEligibleSamples      64819593                       # number cycles where commit BW limit reached (Cycle)
system.cpu.dcache.demandHits::cpu.data      206893814                       # number of demand (read+write) hits (Count)
system.cpu.dcache.demandHits::total         206893814                       # number of demand (read+write) hits (Count)
system.cpu.dcache.overallHits::cpu.data     206893814                       # number of overall hits (Count)
system.cpu.dcache.overallHits::total        206893814                       # number of overall hits (Count)
system.cpu.dcache.demandMisses::cpu.data      2698209                       # number of demand (read+write) misses (Count)
system.cpu.dcache.demandMisses::total         2698209                       # number of demand (read+write) misses (Count)
system.cpu.dcache.overallMisses::cpu.data      2698209                       # number of overall misses (Count)
system.cpu.dcache.overallMisses::total        2698209                       # number of overall misses (Count)
system.cpu.dcache.demandMissLatency::cpu.data 242026435475                       # number of demand (read+write) miss ticks (Tick)
system.cpu.dcache.demandMissLatency::total 242026435475                       # number of demand (read+write) miss ticks (Tick)
system.cpu.dcache.overallMissLatency::cpu.data 242026435475                       # number of overall miss ticks (Tick)
system.cpu.dcache.overallMissLatency::total 242026435475                       # number of overall miss ticks (Tick)
system.cpu.dcache.demandAccesses::cpu.data    209592023                       # number of demand (read+write) accesses (Count)
system.cpu.dcache.demandAccesses::total     209592023                       # number of demand (read+write) accesses (Count)
system.cpu.dcache.overallAccesses::cpu.data    209592023                       # number of overall (read+write) accesses (Count)
system.cpu.dcache.overallAccesses::total    209592023                       # number of overall (read+write) accesses (Count)
system.cpu.dcache.demandMissRate::cpu.data     0.012874                       # miss rate for demand accesses (Ratio)
system.cpu.dcache.demandMissRate::total      0.012874                       # miss rate for demand accesses (Ratio)
system.cpu.dcache.overallMissRate::cpu.data     0.012874                       # miss rate for overall accesses (Ratio)
system.cpu.dcache.overallMissRate::total     0.012874                       # miss rate for overall accesses (Ratio)
system.cpu.dcache.demandAvgMissLatency::cpu.data 89698.920830                       # average overall miss latency in ticks ((Tick/Count))
system.cpu.dcache.demandAvgMissLatency::total 89698.920830                       # average overall miss latency in ticks ((Tick/Count))
system.cpu.dcache.overallAvgMissLatency::cpu.data 89698.920830                       # average overall miss latency ((Tick/Count))
system.cpu.dcache.overallAvgMissLatency::total 89698.920830                       # average overall miss latency ((Tick/Count))
system.cpu.dcache.blockedCycles::no_mshrs          168                       # number of cycles access was blocked (Cycle)
system.cpu.dcache.blockedCycles::no_targets            0                       # number of cycles access was blocked (Cycle)
system.cpu.dcache.blockedCauses::no_mshrs            6                       # number of times access was blocked (Count)
system.cpu.dcache.blockedCauses::no_targets            0                       # number of times access was blocked (Count)
system.cpu.dcache.avgBlocked::no_mshrs             28                       # average number of cycles each access was blocked ((Cycle/Count))
system.cpu.dcache.avgBlocked::no_targets          nan                       # average number of cycles each access was blocked ((Cycle/Count))
system.cpu.dcache.writebacks::writebacks       524419                       # number of writebacks (Count)
system.cpu.dcache.writebacks::total            524419                       # number of writebacks (Count)
system.cpu.dcache.demandMshrHits::cpu.data       654847                       # number of demand (read+write) MSHR hits (Count)
system.cpu.dcache.demandMshrHits::total        654847                       # number of demand (read+write) MSHR hits (Count)
system.cpu.dcache.overallMshrHits::cpu.data       654847                       # number of overall MSHR hits (Count)
system.cpu.dcache.overallMshrHits::total       654847                       # number of overall MSHR hits (Count)
system.cpu.dcache.demandMshrMisses::cpu.data      2043362                       # number of demand (read+write) MSHR misses (Count)
system.cpu.dcache.demandMshrMisses::total      2043362                       # number of demand (read+write) MSHR misses (Count)
system.cpu.dcache.overallMshrMisses::cpu.data      2043362                       # number of overall MSHR misses (Count)
system.cpu.dcache.overallMshrMisses::total      2043362                       # number of overall MSHR misses (Count)
system.cpu.dcache.demandMshrMissLatency::cpu.data 180509592553                       # number of demand (read+write) MSHR miss ticks (Tick)
system.cpu.dcache.demandMshrMissLatency::total 180509592553                       # number of demand (read+write) MSHR miss ticks (Tick)
system.cpu.dcache.overallMshrMissLatency::cpu.data 180509592553                       # number of overall MSHR miss ticks (Tick)
system.cpu.dcache.overallMshrMissLatency::total 180509592553                       # number of overall MSHR miss ticks (Tick)
system.cpu.dcache.demandMshrMissRate::cpu.data     0.009749                       # mshr miss ratio for demand accesses (Ratio)
system.cpu.dcache.demandMshrMissRate::total     0.009749                       # mshr miss ratio for demand accesses (Ratio)
system.cpu.dcache.overallMshrMissRate::cpu.data     0.009749                       # mshr miss ratio for overall accesses (Ratio)
system.cpu.dcache.overallMshrMissRate::total     0.009749                       # mshr miss ratio for overall accesses (Ratio)
system.cpu.dcache.demandAvgMshrMissLatency::cpu.data 88339.507416                       # average overall mshr miss latency ((Tick/Count))
system.cpu.dcache.demandAvgMshrMissLatency::total 88339.507416                       # average overall mshr miss latency ((Tick/Count))
system.cpu.dcache.overallAvgMshrMissLatency::cpu.data 88339.507416                       # average overall mshr miss latency ((Tick/Count))
system.cpu.dcache.overallAvgMshrMissLatency::total 88339.507416                       # average overall mshr miss latency ((Tick/Count))
system.cpu.dcache.replacements                2042850                       # number of replacements (Count)
system.cpu.dcache.LoadLockedReq.hits::cpu.data           44                       # number of LoadLockedReq hits (Count)
system.cpu.dcache.LoadLockedReq.hits::total           44                       # number of LoadLockedReq hits (Count)
system.cpu.dcache.LoadLockedReq.misses::cpu.data            3                       # number of LoadLockedReq misses (Count)
system.cpu.dcache.LoadLockedReq.misses::total            3                       # number of LoadLockedReq misses (Count)
system.cpu.dcache.LoadLockedReq.missLatency::cpu.data       131098                       # number of LoadLockedReq miss ticks (Tick)
system.cpu.dcache.LoadLockedReq.missLatency::total       131098                       # number of LoadLockedReq miss ticks (Tick)
system.cpu.dcache.LoadLockedReq.accesses::cpu.data           47                       # number of LoadLockedReq accesses(hits+misses) (Count)
system.cpu.dcache.LoadLockedReq.accesses::total           47                       # number of LoadLockedReq accesses(hits+misses) (Count)
system.cpu.dcache.LoadLockedReq.missRate::cpu.data     0.063830                       # miss rate for LoadLockedReq accesses (Ratio)
system.cpu.dcache.LoadLockedReq.missRate::total     0.063830                       # miss rate for LoadLockedReq accesses (Ratio)
system.cpu.dcache.LoadLockedReq.avgMissLatency::cpu.data 43699.333333                       # average LoadLockedReq miss latency ((Tick/Count))
system.cpu.dcache.LoadLockedReq.avgMissLatency::total 43699.333333                       # average LoadLockedReq miss latency ((Tick/Count))
system.cpu.dcache.LoadLockedReq.mshrHits::cpu.data            3                       # number of LoadLockedReq MSHR hits (Count)
system.cpu.dcache.LoadLockedReq.mshrHits::total            3                       # number of LoadLockedReq MSHR hits (Count)
system.cpu.dcache.ReadReq.hits::cpu.data    102951645                       # number of ReadReq hits (Count)
system.cpu.dcache.ReadReq.hits::total       102951645                       # number of ReadReq hits (Count)
system.cpu.dcache.ReadReq.misses::cpu.data      1519132                       # number of ReadReq misses (Count)
system.cpu.dcache.ReadReq.misses::total       1519132                       # number of ReadReq misses (Count)
system.cpu.dcache.ReadReq.missLatency::cpu.data 143300439420                       # number of ReadReq miss ticks (Tick)
system.cpu.dcache.ReadReq.missLatency::total 143300439420                       # number of ReadReq miss ticks (Tick)
system.cpu.dcache.ReadReq.accesses::cpu.data    104470777                       # number of ReadReq accesses(hits+misses) (Count)
system.cpu.dcache.ReadReq.accesses::total    104470777                       # number of ReadReq accesses(hits+misses) (Count)
system.cpu.dcache.ReadReq.missRate::cpu.data     0.014541                       # miss rate for ReadReq accesses (Ratio)
system.cpu.dcache.ReadReq.missRate::total     0.014541                       # miss rate for ReadReq accesses (Ratio)
system.cpu.dcache.ReadReq.avgMissLatency::cpu.data 94330.472546                       # average ReadReq miss latency ((Tick/Count))
system.cpu.dcache.ReadReq.avgMissLatency::total 94330.472546                       # average ReadReq miss latency ((Tick/Count))
system.cpu.dcache.ReadReq.mshrHits::cpu.data          297                       # number of ReadReq MSHR hits (Count)
system.cpu.dcache.ReadReq.mshrHits::total          297                       # number of ReadReq MSHR hits (Count)
system.cpu.dcache.ReadReq.mshrMisses::cpu.data      1518835                       # number of ReadReq MSHR misses (Count)
system.cpu.dcache.ReadReq.mshrMisses::total      1518835                       # number of ReadReq MSHR misses (Count)
system.cpu.dcache.ReadReq.mshrMissLatency::cpu.data 139098294845                       # number of ReadReq MSHR miss ticks (Tick)
system.cpu.dcache.ReadReq.mshrMissLatency::total 139098294845                       # number of ReadReq MSHR miss ticks (Tick)
system.cpu.dcache.ReadReq.mshrMissRate::cpu.data     0.014538                       # mshr miss rate for ReadReq accesses (Ratio)
system.cpu.dcache.ReadReq.mshrMissRate::total     0.014538                       # mshr miss rate for ReadReq accesses (Ratio)
system.cpu.dcache.ReadReq.avgMshrMissLatency::cpu.data 91582.229041                       # average ReadReq mshr miss latency ((Tick/Count))
system.cpu.dcache.ReadReq.avgMshrMissLatency::total 91582.229041                       # average ReadReq mshr miss latency ((Tick/Count))
system.cpu.dcache.StoreCondReq.hits::cpu.data           41                       # number of StoreCondReq hits (Count)
system.cpu.dcache.StoreCondReq.hits::total           41                       # number of StoreCondReq hits (Count)
system.cpu.dcache.StoreCondReq.accesses::cpu.data           41                       # number of StoreCondReq accesses(hits+misses) (Count)
system.cpu.dcache.StoreCondReq.accesses::total           41                       # number of StoreCondReq accesses(hits+misses) (Count)
system.cpu.dcache.WriteReq.hits::cpu.data    103942169                       # number of WriteReq hits (Count)
system.cpu.dcache.WriteReq.hits::total      103942169                       # number of WriteReq hits (Count)
system.cpu.dcache.WriteReq.misses::cpu.data      1179077                       # number of WriteReq misses (Count)
system.cpu.dcache.WriteReq.misses::total      1179077                       # number of WriteReq misses (Count)
system.cpu.dcache.WriteReq.missLatency::cpu.data  98725996055                       # number of WriteReq miss ticks (Tick)
system.cpu.dcache.WriteReq.missLatency::total  98725996055                       # number of WriteReq miss ticks (Tick)
system.cpu.dcache.WriteReq.accesses::cpu.data    105121246                       # number of WriteReq accesses(hits+misses) (Count)
system.cpu.dcache.WriteReq.accesses::total    105121246                       # number of WriteReq accesses(hits+misses) (Count)
system.cpu.dcache.WriteReq.missRate::cpu.data     0.011216                       # miss rate for WriteReq accesses (Ratio)
system.cpu.dcache.WriteReq.missRate::total     0.011216                       # miss rate for WriteReq accesses (Ratio)
system.cpu.dcache.WriteReq.avgMissLatency::cpu.data 83731.593488                       # average WriteReq miss latency ((Tick/Count))
system.cpu.dcache.WriteReq.avgMissLatency::total 83731.593488                       # average WriteReq miss latency ((Tick/Count))
system.cpu.dcache.WriteReq.mshrHits::cpu.data       654550                       # number of WriteReq MSHR hits (Count)
system.cpu.dcache.WriteReq.mshrHits::total       654550                       # number of WriteReq MSHR hits (Count)
system.cpu.dcache.WriteReq.mshrMisses::cpu.data       524527                       # number of WriteReq MSHR misses (Count)
system.cpu.dcache.WriteReq.mshrMisses::total       524527                       # number of WriteReq MSHR misses (Count)
system.cpu.dcache.WriteReq.mshrMissLatency::cpu.data  41411297708                       # number of WriteReq MSHR miss ticks (Tick)
system.cpu.dcache.WriteReq.mshrMissLatency::total  41411297708                       # number of WriteReq MSHR miss ticks (Tick)
system.cpu.dcache.WriteReq.mshrMissRate::cpu.data     0.004990                       # mshr miss rate for WriteReq accesses (Ratio)
system.cpu.dcache.WriteReq.mshrMissRate::total     0.004990                       # mshr miss rate for WriteReq accesses (Ratio)
system.cpu.dcache.WriteReq.avgMshrMissLatency::cpu.data 78949.792304                       # average WriteReq mshr miss latency ((Tick/Count))
system.cpu.dcache.WriteReq.avgMshrMissLatency::total 78949.792304                       # average WriteReq mshr miss latency ((Tick/Count))
system.cpu.dcache.power_state.pwrStateResidencyTicks::UNDEFINED 606768949259                       # Cumulative time (in ticks) in various power states (Tick)
system.cpu.dcache.tags.tagsInUse           511.895985                       # Average ticks per tags in use ((Tick/Count))
system.cpu.dcache.tags.totalRefs            208937261                       # Total number of references to valid blocks. (Count)
system.cpu.dcache.tags.sampledRefs            2043362                       # Sample count of references to valid blocks. (Count)
system.cpu.dcache.tags.avgRefs             102.251711                       # Average number of references to valid blocks. ((Count/Count))
system.cpu.dcache.tags.warmupTick              153500                       # The tick when the warmup percentage was hit. (Tick)
system.cpu.dcache.tags.occupancies::cpu.data   511.895985                       # Average occupied blocks per tick, per requestor ((Count/Tick))
system.cpu.dcache.tags.avgOccs::cpu.data     0.999797                       # Average percentage of cache occupancy ((Ratio/Tick))
system.cpu.dcache.tags.avgOccs::total        0.999797                       # Average percentage of cache occupancy ((Ratio/Tick))
system.cpu.dcache.tags.occupanciesTaskId::1024          512                       # Occupied blocks per task id (Count)
system.cpu.dcache.tags.ageTaskId_1024::0            3                       # Occupied blocks per task id, per block age (Count)
system.cpu.dcache.tags.ageTaskId_1024::2            4                       # Occupied blocks per task id, per block age (Count)
system.cpu.dcache.tags.ageTaskId_1024::3           24                       # Occupied blocks per task id, per block age (Count)
system.cpu.dcache.tags.ageTaskId_1024::4          481                       # Occupied blocks per task id, per block age (Count)
system.cpu.dcache.tags.ratioOccsTaskId::1024            1                       # Ratio of occupied blocks and all blocks, per task id (Ratio)
system.cpu.dcache.tags.tagAccesses          840411806                       # Number of tag accesses (Count)
system.cpu.dcache.tags.dataAccesses         840411806                       # Number of data accesses (Count)
system.cpu.dcache.tags.power_state.pwrStateResidencyTicks::UNDEFINED 606768949259                       # Cumulative time (in ticks) in various power states (Tick)
system.cpu.decode.idleCycles                164060883                       # Number of cycles decode is idle (Cycle)
system.cpu.decode.blockedCycles             155134080                       # Number of cycles decode is blocked (Cycle)
system.cpu.decode.runCycles                 163321477                       # Number of cycles decode is running (Cycle)
system.cpu.decode.unblockCycles              48174139                       # Number of cycles decode is unblocking (Cycle)
system.cpu.decode.squashCycles               15448754                       # Number of cycles decode is squashing (Cycle)
system.cpu.decode.branchResolved             75848684                       # Number of times decode resolved a branch (Count)
system.cpu.decode.branchMispred                   214                       # Number of times decode detected a branch misprediction (Count)
system.cpu.decode.decodedInsts             1325932599                       # Number of instructions handled by decode (Count)
system.cpu.decode.squashedInsts                   722                       # Number of squashed instructions handled by decode (Count)
system.cpu.fetch.icacheStallCycles          157955852                       # Number of cycles fetch is stalled on an Icache miss (Cycle)
system.cpu.fetch.insts                     1129125836                       # Number of instructions fetch has processed (Count)
system.cpu.fetch.branches                   153236863                       # Number of branches that fetch encountered (Count)
system.cpu.fetch.predictedBranches          104983055                       # Number of branches that fetch has predicted taken (Count)
system.cpu.fetch.cycles                     288193682                       # Number of cycles fetch has run and was not squashing or blocked (Cycle)
system.cpu.fetch.squashCycles                30897910                       # Number of cycles fetch has spent squashing (Cycle)
system.cpu.fetch.miscStallCycles             12859665                       # Number of cycles fetch has spent waiting on interrupts, or bad addresses, or out of MSHRs (Cycle)
system.cpu.fetch.pendingTrapStallCycles      71681169                       # Number of stall cycles due to pending traps (Cycle)
system.cpu.fetch.icacheWaitRetryStallCycles           10                       # Number of stall cycles due to full MSHR (Cycle)
system.cpu.fetch.cacheLines                 155746979                       # Number of cache lines fetched (Count)
system.cpu.fetch.icacheSquashes                 64045                       # Number of outstanding Icache misses that were squashed (Count)
system.cpu.fetch.nisnDist::samples          546139333                       # Number of instructions fetched each cycle (Total) (Count)
system.cpu.fetch.nisnDist::mean              2.423825                       # Number of instructions fetched each cycle (Total) (Count)
system.cpu.fetch.nisnDist::stdev             3.209143                       # Number of instructions fetched each cycle (Total) (Count)
system.cpu.fetch.nisnDist::underflows               0      0.00%      0.00% # Number of instructions fetched each cycle (Total) (Count)
system.cpu.fetch.nisnDist::0                311075669     56.96%     56.96% # Number of instructions fetched each cycle (Total) (Count)
system.cpu.fetch.nisnDist::1                 16863242      3.09%     60.05% # Number of instructions fetched each cycle (Total) (Count)
system.cpu.fetch.nisnDist::2                 14267079      2.61%     62.66% # Number of instructions fetched each cycle (Total) (Count)
system.cpu.fetch.nisnDist::3                 31826016      5.83%     68.49% # Number of instructions fetched each cycle (Total) (Count)
system.cpu.fetch.nisnDist::4                 14296435      2.62%     71.10% # Number of instructions fetched each cycle (Total) (Count)
system.cpu.fetch.nisnDist::5                 25157755      4.61%     75.71% # Number of instructions fetched each cycle (Total) (Count)
system.cpu.fetch.nisnDist::6                 22538251      4.13%     79.84% # Number of instructions fetched each cycle (Total) (Count)
system.cpu.fetch.nisnDist::7                 16252128      2.98%     82.81% # Number of instructions fetched each cycle (Total) (Count)
system.cpu.fetch.nisnDist::8                 93862758     17.19%    100.00% # Number of instructions fetched each cycle (Total) (Count)
system.cpu.fetch.nisnDist::overflows                0      0.00%    100.00% # Number of instructions fetched each cycle (Total) (Count)
system.cpu.fetch.nisnDist::min_value                0                       # Number of instructions fetched each cycle (Total) (Count)
system.cpu.fetch.nisnDist::max_value                8                       # Number of instructions fetched each cycle (Total) (Count)
system.cpu.fetch.nisnDist::total            546139333                       # Number of instructions fetched each cycle (Total) (Count)
system.cpu.fetch.branchRate                  0.280578                       # Number of branch fetches per cycle (Ratio)
system.cpu.fetch.rate                        2.067441                       # Number of inst fetches per cycle ((Count/Cycle))
system.cpu.icache.demandHits::cpu.inst      155746524                       # number of demand (read+write) hits (Count)
system.cpu.icache.demandHits::total         155746524                       # number of demand (read+write) hits (Count)
system.cpu.icache.overallHits::cpu.inst     155746524                       # number of overall hits (Count)
system.cpu.icache.overallHits::total        155746524                       # number of overall hits (Count)
system.cpu.icache.demandMisses::cpu.inst          454                       # number of demand (read+write) misses (Count)
system.cpu.icache.demandMisses::total             454                       # number of demand (read+write) misses (Count)
system.cpu.icache.overallMisses::cpu.inst          454                       # number of overall misses (Count)
system.cpu.icache.overallMisses::total            454                       # number of overall misses (Count)
system.cpu.icache.demandMissLatency::cpu.inst     31613482                       # number of demand (read+write) miss ticks (Tick)
system.cpu.icache.demandMissLatency::total     31613482                       # number of demand (read+write) miss ticks (Tick)
system.cpu.icache.overallMissLatency::cpu.inst     31613482                       # number of overall miss ticks (Tick)
system.cpu.icache.overallMissLatency::total     31613482                       # number of overall miss ticks (Tick)
system.cpu.icache.demandAccesses::cpu.inst    155746978                       # number of demand (read+write) accesses (Count)
system.cpu.icache.demandAccesses::total     155746978                       # number of demand (read+write) accesses (Count)
system.cpu.icache.overallAccesses::cpu.inst    155746978                       # number of overall (read+write) accesses (Count)
system.cpu.icache.overallAccesses::total    155746978                       # number of overall (read+write) accesses (Count)
system.cpu.icache.demandMissRate::cpu.inst     0.000003                       # miss rate for demand accesses (Ratio)
system.cpu.icache.demandMissRate::total      0.000003                       # miss rate for demand accesses (Ratio)
system.cpu.icache.overallMissRate::cpu.inst     0.000003                       # miss rate for overall accesses (Ratio)
system.cpu.icache.overallMissRate::total     0.000003                       # miss rate for overall accesses (Ratio)
system.cpu.icache.demandAvgMissLatency::cpu.inst 69633.220264                       # average overall miss latency in ticks ((Tick/Count))
system.cpu.icache.demandAvgMissLatency::total 69633.220264                       # average overall miss latency in ticks ((Tick/Count))
system.cpu.icache.overallAvgMissLatency::cpu.inst 69633.220264                       # average overall miss latency ((Tick/Count))
system.cpu.icache.overallAvgMissLatency::total 69633.220264                       # average overall miss latency ((Tick/Count))
system.cpu.icache.blockedCycles::no_mshrs           81                       # number of cycles access was blocked (Cycle)
system.cpu.icache.blockedCycles::no_targets            0                       # number of cycles access was blocked (Cycle)
system.cpu.icache.blockedCauses::no_mshrs            7                       # number of times access was blocked (Count)
system.cpu.icache.blockedCauses::no_targets            0                       # number of times access was blocked (Count)
system.cpu.icache.avgBlocked::no_mshrs      11.571429                       # average number of cycles each access was blocked ((Cycle/Count))
system.cpu.icache.avgBlocked::no_targets          nan                       # average number of cycles each access was blocked ((Cycle/Count))
system.cpu.icache.demandMshrHits::cpu.inst           97                       # number of demand (read+write) MSHR hits (Count)
system.cpu.icache.demandMshrHits::total            97                       # number of demand (read+write) MSHR hits (Count)
system.cpu.icache.overallMshrHits::cpu.inst           97                       # number of overall MSHR hits (Count)
system.cpu.icache.overallMshrHits::total           97                       # number of overall MSHR hits (Count)
system.cpu.icache.demandMshrMisses::cpu.inst          357                       # number of demand (read+write) MSHR misses (Count)
system.cpu.icache.demandMshrMisses::total          357                       # number of demand (read+write) MSHR misses (Count)
system.cpu.icache.overallMshrMisses::cpu.inst          357                       # number of overall MSHR misses (Count)
system.cpu.icache.overallMshrMisses::total          357                       # number of overall MSHR misses (Count)
system.cpu.icache.demandMshrMissLatency::cpu.inst     25452132                       # number of demand (read+write) MSHR miss ticks (Tick)
system.cpu.icache.demandMshrMissLatency::total     25452132                       # number of demand (read+write) MSHR miss ticks (Tick)
system.cpu.icache.overallMshrMissLatency::cpu.inst     25452132                       # number of overall MSHR miss ticks (Tick)
system.cpu.icache.overallMshrMissLatency::total     25452132                       # number of overall MSHR miss ticks (Tick)
system.cpu.icache.demandMshrMissRate::cpu.inst     0.000002                       # mshr miss ratio for demand accesses (Ratio)
system.cpu.icache.demandMshrMissRate::total     0.000002                       # mshr miss ratio for demand accesses (Ratio)
system.cpu.icache.overallMshrMissRate::cpu.inst     0.000002                       # mshr miss ratio for overall accesses (Ratio)
system.cpu.icache.overallMshrMissRate::total     0.000002                       # mshr miss ratio for overall accesses (Ratio)
system.cpu.icache.demandAvgMshrMissLatency::cpu.inst 71294.487395                       # average overall mshr miss latency ((Tick/Count))
system.cpu.icache.demandAvgMshrMissLatency::total 71294.487395                       # average overall mshr miss latency ((Tick/Count))
system.cpu.icache.overallAvgMshrMissLatency::cpu.inst 71294.487395                       # average overall mshr miss latency ((Tick/Count))
system.cpu.icache.overallAvgMshrMissLatency::total 71294.487395                       # average overall mshr miss latency ((Tick/Count))
system.cpu.icache.replacements                     19                       # number of replacements (Count)
system.cpu.icache.ReadReq.hits::cpu.inst    155746524                       # number of ReadReq hits (Count)
system.cpu.icache.ReadReq.hits::total       155746524                       # number of ReadReq hits (Count)
system.cpu.icache.ReadReq.misses::cpu.inst          454                       # number of ReadReq misses (Count)
system.cpu.icache.ReadReq.misses::total           454                       # number of ReadReq misses (Count)
system.cpu.icache.ReadReq.missLatency::cpu.inst     31613482                       # number of ReadReq miss ticks (Tick)
system.cpu.icache.ReadReq.missLatency::total     31613482                       # number of ReadReq miss ticks (Tick)
system.cpu.icache.ReadReq.accesses::cpu.inst    155746978                       # number of ReadReq accesses(hits+misses) (Count)
system.cpu.icache.ReadReq.accesses::total    155746978                       # number of ReadReq accesses(hits+misses) (Count)
system.cpu.icache.ReadReq.missRate::cpu.inst     0.000003                       # miss rate for ReadReq accesses (Ratio)
system.cpu.icache.ReadReq.missRate::total     0.000003                       # miss rate for ReadReq accesses (Ratio)
system.cpu.icache.ReadReq.avgMissLatency::cpu.inst 69633.220264                       # average ReadReq miss latency ((Tick/Count))
system.cpu.icache.ReadReq.avgMissLatency::total 69633.220264                       # average ReadReq miss latency ((Tick/Count))
system.cpu.icache.ReadReq.mshrHits::cpu.inst           97                       # number of ReadReq MSHR hits (Count)
system.cpu.icache.ReadReq.mshrHits::total           97                       # number of ReadReq MSHR hits (Count)
system.cpu.icache.ReadReq.mshrMisses::cpu.inst          357                       # number of ReadReq MSHR misses (Count)
system.cpu.icache.ReadReq.mshrMisses::total          357                       # number of ReadReq MSHR misses (Count)
system.cpu.icache.ReadReq.mshrMissLatency::cpu.inst     25452132                       # number of ReadReq MSHR miss ticks (Tick)
system.cpu.icache.ReadReq.mshrMissLatency::total     25452132                       # number of ReadReq MSHR miss ticks (Tick)
system.cpu.icache.ReadReq.mshrMissRate::cpu.inst     0.000002                       # mshr miss rate for ReadReq accesses (Ratio)
system.cpu.icache.ReadReq.mshrMissRate::total     0.000002                       # mshr miss rate for ReadReq accesses (Ratio)
system.cpu.icache.ReadReq.avgMshrMissLatency::cpu.inst 71294.487395                       # average ReadReq mshr miss latency ((Tick/Count))
system.cpu.icache.ReadReq.avgMshrMissLatency::total 71294.487395                       # average ReadReq mshr miss latency ((Tick/Count))
system.cpu.icache.power_state.pwrStateResidencyTicks::UNDEFINED 606768949259                       # Cumulative time (in ticks) in various power states (Tick)
system.cpu.icache.tags.tagsInUse           327.294419                       # Average ticks per tags in use ((Tick/Count))
system.cpu.icache.tags.totalRefs            155746881                       # Total number of references to valid blocks. (Count)
system.cpu.icache.tags.sampledRefs                357                       # Sample count of references to valid blocks. (Count)
system.cpu.icache.tags.avgRefs           436265.773109                       # Average number of references to valid blocks. ((Count/Count))
system.cpu.icache.tags.warmupTick               82000                       # The tick when the warmup percentage was hit. (Tick)
system.cpu.icache.tags.occupancies::cpu.inst   327.294419                       # Average occupied blocks per tick, per requestor ((Count/Tick))
system.cpu.icache.tags.avgOccs::cpu.inst     0.639247                       # Average percentage of cache occupancy ((Ratio/Tick))
system.cpu.icache.tags.avgOccs::total        0.639247                       # Average percentage of cache occupancy ((Ratio/Tick))
system.cpu.icache.tags.occupanciesTaskId::1024          338                       # Occupied blocks per task id (Count)
system.cpu.icache.tags.ageTaskId_1024::4          338                       # Occupied blocks per task id, per block age (Count)
system.cpu.icache.tags.ratioOccsTaskId::1024     0.660156                       # Ratio of occupied blocks and all blocks, per task id (Ratio)
system.cpu.icache.tags.tagAccesses          622988269                       # Number of tag accesses (Count)
system.cpu.icache.tags.dataAccesses         622988269                       # Number of data accesses (Count)
system.cpu.icache.tags.power_state.pwrStateResidencyTicks::UNDEFINED 606768949259                       # Cumulative time (in ticks) in various power states (Tick)
system.cpu.iew.idleCycles                           0                       # Number of cycles IEW is idle (Cycle)
system.cpu.iew.squashCycles                  15448754                       # Number of cycles IEW is squashing (Cycle)
system.cpu.iew.blockCycles                   53909549                       # Number of cycles IEW is blocking (Cycle)
system.cpu.iew.unblockCycles                   453418                       # Number of cycles IEW is unblocking (Cycle)
system.cpu.iew.dispatchedInsts             1306064227                       # Number of instructions dispatched to IQ (Count)
system.cpu.iew.dispSquashedInsts              2094700                       # Number of squashed instructions skipped by dispatch (Count)
system.cpu.iew.dispLoadInsts                130015304                       # Number of dispatched load instructions (Count)
system.cpu.iew.dispStoreInsts               105826722                       # Number of dispatched store instructions (Count)
system.cpu.iew.dispNonSpecInsts                    70                       # Number of dispatched non-speculative instructions (Count)
system.cpu.iew.iqFullEvents                     33836                       # Number of times the IQ has become full, causing a stall (Count)
system.cpu.iew.lsqFullEvents                        0                       # Number of times the LSQ has become full, causing a stall (Count)
system.cpu.iew.memOrderViolationEvents           4435                       # Number of memory order violations (Count)
system.cpu.iew.predictedTakenIncorrect        4270154                       # Number of branches that were predicted taken incorrectly (Count)
system.cpu.iew.predictedNotTakenIncorrect     13812707                       # Number of branches that were predicted not taken incorrectly (Count)
system.cpu.iew.branchMispredicts             18082861                       # Number of branch mispredicts detected at execute (Count)
system.cpu.iew.instsToCommit               1235324521                       # Cumulative count of insts sent to commit (Count)
system.cpu.iew.writebackCount              1223615879                       # Cumulative count of insts written-back (Count)
system.cpu.iew.producerInst                 906918321                       # Number of instructions producing a value (Count)
system.cpu.iew.consumerInst                2492003405                       # Number of instructions consuming a value (Count)
system.cpu.iew.wbRate                        2.240453                       # Insts written-back per cycle ((Count/Cycle))
system.cpu.iew.wbFanout                      0.363931                       # Average fanout of values written-back ((Count/Count))
system.cpu.lsq0.forwLoads                    21149123                       # Number of loads that had data forwarded from stores (Count)
system.cpu.lsq0.squashedLoads                 9347493                       # Number of loads squashed (Count)
system.cpu.lsq0.ignoredResponses                  933                       # Number of memory responses ignored because the instruction is squashed (Count)
system.cpu.lsq0.memOrderViolation                4435                       # Number of memory ordering violations (Count)
system.cpu.lsq0.squashedStores                 705417                       # Number of stores squashed (Count)
system.cpu.lsq0.rescheduledLoads             32008029                       # Number of loads that were rescheduled (Count)
system.cpu.lsq0.blockedByCache                      4                       # Number of times an access to memory failed due to the cache being blocked (Count)
system.cpu.lsq0.loadToUse::samples          120667805                       # Distribution of cycle latency between the first time a load is issued and its completion (Unspecified)
system.cpu.lsq0.loadToUse::mean              4.967944                       # Distribution of cycle latency between the first time a load is issued and its completion (Unspecified)
system.cpu.lsq0.loadToUse::stdev            10.607094                       # Distribution of cycle latency between the first time a load is issued and its completion (Unspecified)
system.cpu.lsq0.loadToUse::0-9              117285898     97.20%     97.20% # Distribution of cycle latency between the first time a load is issued and its completion (Unspecified)
system.cpu.lsq0.loadToUse::10-19              1862218      1.54%     98.74% # Distribution of cycle latency between the first time a load is issued and its completion (Unspecified)
system.cpu.lsq0.loadToUse::20-29                   47      0.00%     98.74% # Distribution of cycle latency between the first time a load is issued and its completion (Unspecified)
system.cpu.lsq0.loadToUse::30-39                    8      0.00%     98.74% # Distribution of cycle latency between the first time a load is issued and its completion (Unspecified)
system.cpu.lsq0.loadToUse::40-49                    6      0.00%     98.74% # Distribution of cycle latency between the first time a load is issued and its completion (Unspecified)
system.cpu.lsq0.loadToUse::50-59                   14      0.00%     98.74% # Distribution of cycle latency between the first time a load is issued and its completion (Unspecified)
system.cpu.lsq0.loadToUse::60-69                  272      0.00%     98.74% # Distribution of cycle latency between the first time a load is issued and its completion (Unspecified)
system.cpu.lsq0.loadToUse::70-79              1173742      0.97%     99.71% # Distribution of cycle latency between the first time a load is issued and its completion (Unspecified)
system.cpu.lsq0.loadToUse::80-89               307156      0.25%     99.97% # Distribution of cycle latency between the first time a load is issued and its completion (Unspecified)
system.cpu.lsq0.loadToUse::90-99                  390      0.00%     99.97% # Distribution of cycle latency between the first time a load is issued and its completion (Unspecified)
system.cpu.lsq0.loadToUse::100-109                184      0.00%     99.97% # Distribution of cycle latency between the first time a load is issued and its completion (Unspecified)
system.cpu.lsq0.loadToUse::110-119                  1      0.00%     99.97% # Distribution of cycle latency between the first time a load is issued and its completion (Unspecified)
system.cpu.lsq0.loadToUse::120-129                  2      0.00%     99.97% # Distribution of cycle latency between the first time a load is issued and its completion (Unspecified)
system.cpu.lsq0.loadToUse::130-139                  1      0.00%     99.97% # Distribution of cycle latency between the first time a load is issued and its completion (Unspecified)
system.cpu.lsq0.loadToUse::220-229                 13      0.00%     99.97% # Distribution of cycle latency between the first time a load is issued and its completion (Unspecified)
system.cpu.lsq0.loadToUse::230-239                 13      0.00%     99.97% # Distribution of cycle latency between the first time a load is issued and its completion (Unspecified)
system.cpu.lsq0.loadToUse::240-249                 48      0.00%     99.97% # Distribution of cycle latency between the first time a load is issued and its completion (Unspecified)
system.cpu.lsq0.loadToUse::250-259                 69      0.00%     99.97% # Distribution of cycle latency between the first time a load is issued and its completion (Unspecified)
system.cpu.lsq0.loadToUse::260-269                580      0.00%     99.97% # Distribution of cycle latency between the first time a load is issued and its completion (Unspecified)
system.cpu.lsq0.loadToUse::270-279               1292      0.00%     99.97% # Distribution of cycle latency between the first time a load is issued and its completion (Unspecified)
system.cpu.lsq0.loadToUse::280-289               1626      0.00%     99.97% # Distribution of cycle latency between the first time a load is issued and its completion (Unspecified)
system.cpu.lsq0.loadToUse::290-299                941      0.00%     99.97% # Distribution of cycle latency between the first time a load is issued and its completion (Unspecified)
[...]
system.mem_ctrl.dram.perBankRdBursts::7         63788                       # Per bank write bursts (Count)
system.mem_ctrl.dram.perBankRdBursts::8         63795                       # Per bank write bursts (Count)
system.mem_ctrl.dram.perBankRdBursts::9         63851                       # Per bank write bursts (Count)
system.mem_ctrl.dram.perBankRdBursts::10        63810                       # Per bank write bursts (Count)
system.mem_ctrl.dram.perBankRdBursts::11        63804                       # Per bank write bursts (Count)
system.mem_ctrl.dram.perBankRdBursts::12        63789                       # Per bank write bursts (Count)
system.mem_ctrl.dram.perBankRdBursts::13        63815                       # Per bank write bursts (Count)
system.mem_ctrl.dram.perBankRdBursts::14        63798                       # Per bank write bursts (Count)
system.mem_ctrl.dram.perBankRdBursts::15        63790                       # Per bank write bursts (Count)
system.mem_ctrl.dram.perBankRdBursts::16        63784                       # Per bank write bursts (Count)
system.mem_ctrl.dram.perBankRdBursts::17        63784                       # Per bank write bursts (Count)
system.mem_ctrl.dram.perBankRdBursts::18        63788                       # Per bank write bursts (Count)
system.mem_ctrl.dram.perBankRdBursts::19        63785                       # Per bank write bursts (Count)
system.mem_ctrl.dram.perBankRdBursts::20        63791                       # Per bank write bursts (Count)
system.mem_ctrl.dram.perBankRdBursts::21        63784                       # Per bank write bursts (Count)
system.mem_ctrl.dram.perBankRdBursts::22        63784                       # Per bank write bursts (Count)
system.mem_ctrl.dram.perBankRdBursts::23        63784                       # Per bank write bursts (Count)
system.mem_ctrl.dram.perBankRdBursts::24        63784                       # Per bank write bursts (Count)
system.mem_ctrl.dram.perBankRdBursts::25        63784                       # Per bank write bursts (Count)
system.mem_ctrl.dram.perBankRdBursts::26        63787                       # Per bank write bursts (Count)
system.mem_ctrl.dram.perBankRdBursts::27        63785                       # Per bank write bursts (Count)
system.mem_ctrl.dram.perBankRdBursts::28        63784                       # Per bank write bursts (Count)
system.mem_ctrl.dram.perBankRdBursts::29        63821                       # Per bank write bursts (Count)
system.mem_ctrl.dram.perBankRdBursts::30        63798                       # Per bank write bursts (Count)
system.mem_ctrl.dram.perBankRdBursts::31        63810                       # Per bank write bursts (Count)
system.mem_ctrl.dram.perBankWrBursts::0         16394                       # Per bank write bursts (Count)
system.mem_ctrl.dram.perBankWrBursts::1         16388                       # Per bank write bursts (Count)
system.mem_ctrl.dram.perBankWrBursts::2         16513                       # Per bank write bursts (Count)
system.mem_ctrl.dram.perBankWrBursts::3         16262                       # Per bank write bursts (Count)
system.mem_ctrl.dram.perBankWrBursts::4         16384                       # Per bank write bursts (Count)
system.mem_ctrl.dram.perBankWrBursts::5         16384                       # Per bank write bursts (Count)
system.mem_ctrl.dram.perBankWrBursts::6         16384                       # Per bank write bursts (Count)
system.mem_ctrl.dram.perBankWrBursts::7         16384                       # Per bank write bursts (Count)
system.mem_ctrl.dram.perBankWrBursts::8         16384                       # Per bank write bursts (Count)
system.mem_ctrl.dram.perBankWrBursts::9         16384                       # Per bank write bursts (Count)
system.mem_ctrl.dram.perBankWrBursts::10        16384                       # Per bank write bursts (Count)
system.mem_ctrl.dram.perBankWrBursts::11        16384                       # Per bank write bursts (Count)
system.mem_ctrl.dram.perBankWrBursts::12        16384                       # Per bank write bursts (Count)
system.mem_ctrl.dram.perBankWrBursts::13        16384                       # Per bank write bursts (Count)
system.mem_ctrl.dram.perBankWrBursts::14        16384                       # Per bank write bursts (Count)
system.mem_ctrl.dram.perBankWrBursts::15        16384                       # Per bank write bursts (Count)
system.mem_ctrl.dram.perBankWrBursts::16        16384                       # Per bank write bursts (Count)
system.mem_ctrl.dram.perBankWrBursts::17        16384                       # Per bank write bursts (Count)
system.mem_ctrl.dram.perBankWrBursts::18        16384                       # Per bank write bursts (Count)
system.mem_ctrl.dram.perBankWrBursts::19        16384                       # Per bank write bursts (Count)
system.mem_ctrl.dram.perBankWrBursts::20        16384                       # Per bank write bursts (Count)
system.mem_ctrl.dram.perBankWrBursts::21        16384                       # Per bank write bursts (Count)
system.mem_ctrl.dram.perBankWrBursts::22        16384                       # Per bank write bursts (Count)
system.mem_ctrl.dram.perBankWrBursts::23        16384                       # Per bank write bursts (Count)
system.mem_ctrl.dram.perBankWrBursts::24        16384                       # Per bank write bursts (Count)
system.mem_ctrl.dram.perBankWrBursts::25        16384                       # Per bank write bursts (Count)
system.mem_ctrl.dram.perBankWrBursts::26        16384                       # Per bank write bursts (Count)
system.mem_ctrl.dram.perBankWrBursts::27        16384                       # Per bank write bursts (Count)
system.mem_ctrl.dram.perBankWrBursts::28        16384                       # Per bank write bursts (Count)
system.mem_ctrl.dram.perBankWrBursts::29        16413                       # Per bank write bursts (Count)
system.mem_ctrl.dram.perBankWrBursts::30        16397                       # Per bank write bursts (Count)
system.mem_ctrl.dram.perBankWrBursts::31        16394                       # Per bank write bursts (Count)
system.mem_ctrl.dram.totQLat              44206549497                       # Total ticks spent queuing (Tick)
system.mem_ctrl.dram.totBusLat             6809255208                       # Total ticks spent in databus transfers (Tick)
system.mem_ctrl.dram.totMemAccLat         79953095745                       # Total ticks spent from burst creation until serviced by the DRAM (Tick)
system.mem_ctrl.dram.avgQLat                 21631.77                       # Average queueing delay per DRAM burst ((Tick/Count))
system.mem_ctrl.dram.avgBusLat                3332.00                       # Average bus latency per DRAM burst ((Tick/Count))
system.mem_ctrl.dram.avgMemAccLat            39123.77                       # Average memory access latency per DRAM burst ((Tick/Count))
system.mem_ctrl.dram.readRowHits               456003                       # Number of row buffer hits during reads (Count)
system.mem_ctrl.dram.writeRowHits              436494                       # Number of row buffer hits during writes (Count)
system.mem_ctrl.dram.readRowHitRate             22.31                       # Row buffer hit rate for reads (Ratio)
system.mem_ctrl.dram.writeRowHitRate            83.24                       # Row buffer hit rate for writes (Ratio)
system.mem_ctrl.dram.bytesPerActivate::samples      1675443                       # Bytes accessed per row activation (Byte)
system.mem_ctrl.dram.bytesPerActivate::mean    98.092361                       # Bytes accessed per row activation (Byte)
system.mem_ctrl.dram.bytesPerActivate::gmean    73.625425                       # Bytes accessed per row activation (Byte)
system.mem_ctrl.dram.bytesPerActivate::stdev   142.318196                       # Bytes accessed per row activation (Byte)
system.mem_ctrl.dram.bytesPerActivate::0-127      1557396     92.95%     92.95% # Bytes accessed per row activation (Byte)
system.mem_ctrl.dram.bytesPerActivate::128-255        19411      1.16%     94.11% # Bytes accessed per row activation (Byte)
system.mem_ctrl.dram.bytesPerActivate::256-383        10582      0.63%     94.74% # Bytes accessed per row activation (Byte)
system.mem_ctrl.dram.bytesPerActivate::384-511        24711      1.47%     96.22% # Bytes accessed per row activation (Byte)
system.mem_ctrl.dram.bytesPerActivate::512-639        10239      0.61%     96.83% # Bytes accessed per row activation (Byte)
system.mem_ctrl.dram.bytesPerActivate::640-767        24012      1.43%     98.26% # Bytes accessed per row activation (Byte)
system.mem_ctrl.dram.bytesPerActivate::768-895        17687      1.06%     99.32% # Bytes accessed per row activation (Byte)
system.mem_ctrl.dram.bytesPerActivate::896-1023         3495      0.21%     99.53% # Bytes accessed per row activation (Byte)
system.mem_ctrl.dram.bytesPerActivate::1024-1151         7910      0.47%    100.00% # Bytes accessed per row activation (Byte)
system.mem_ctrl.dram.bytesPerActivate::total      1675443                       # Bytes accessed per row activation (Byte)
system.mem_ctrl.dram.bytesRead              130790016                       # Total bytes read (Byte)
system.mem_ctrl.dram.bytesWritten            33559104                       # Total bytes written (Byte)
system.mem_ctrl.dram.avgRdBW               215.551597                       # Average DRAM read bandwidth in MiBytes/s ((Byte/Second))
system.mem_ctrl.dram.avgWrBW                55.307880                       # Average DRAM write bandwidth in MiBytes/s ((Byte/Second))
system.mem_ctrl.dram.peakBW                  19207.00                       # Theoretical peak bandwidth in MiByte/s ((Byte/Second))
system.mem_ctrl.dram.busUtil                     1.41                       # Data bus utilization in percentage (Ratio)
system.mem_ctrl.dram.busUtilRead                 1.12                       # Data bus utilization in percentage for reads (Ratio)
system.mem_ctrl.dram.busUtilWrite                0.29                       # Data bus utilization in percentage for writes (Ratio)
system.mem_ctrl.dram.pageHitRate                34.76                       # Row buffer hit rate, read and write combined (Ratio)
system.mem_ctrl.dram.power_state.pwrStateResidencyTicks::UNDEFINED 606768949259                       # Cumulative time (in ticks) in various power states (Tick)
system.mem_ctrl.dram.rank0.actEnergy     2615454039.744200                       # Energy for activate commands per rank (pJ) (Joule)
system.mem_ctrl.dram.rank0.preEnergy     3477212614.376477                       # Energy for precharge commands per rank (pJ) (Joule)
system.mem_ctrl.dram.rank0.readEnergy    4302881214.777341                       # Energy for read commands per rank (pJ) (Joule)
system.mem_ctrl.dram.rank0.writeEnergy   985346103.839748                       # Energy for write commands per rank (pJ) (Joule)
system.mem_ctrl.dram.rank0.refreshEnergy 107965249242.813904                       # Energy for refresh commands per rank (pJ) (Joule)
system.mem_ctrl.dram.rank0.actBackEnergy 361993430517.836121                       # Energy for active background per rank (pJ) (Joule)
system.mem_ctrl.dram.rank0.preBackEnergy 117956925293.168564                       # Energy for precharge background per rank (pJ) (Joule)
system.mem_ctrl.dram.rank0.actPowerDownEnergy            0                       # Energy for active power-down per rank (pJ) (Joule)
system.mem_ctrl.dram.rank0.prePowerDownEnergy            0                       # Energy for precharge power-down per rank (pJ) (Joule)
system.mem_ctrl.dram.rank0.selfRefreshEnergy            0                       # Energy for self refresh per rank (pJ) (Joule)
system.mem_ctrl.dram.rank0.totalEnergy   599296499026.518066                       # Total energy per rank (pJ) (Joule)
system.mem_ctrl.dram.rank0.averagePower    987.684851                       # Core power per rank (mW) (Watt)
system.mem_ctrl.dram.rank0.totalIdleTime            0                       # Total Idle time Per DRAM Rank (Tick)
system.mem_ctrl.dram.rank0.pwrStateTime::IDLE 178658385278                       # Time in different power states (Tick)
system.mem_ctrl.dram.rank0.pwrStateTime::REF  27276200000                       # Time in different power states (Tick)
system.mem_ctrl.dram.rank0.pwrStateTime::SREF            0                       # Time in different power states (Tick)
system.mem_ctrl.dram.rank0.pwrStateTime::PRE_PDN            0                       # Time in different power states (Tick)
system.mem_ctrl.dram.rank0.pwrStateTime::ACT 400834363981                       # Time in different power states (Tick)
system.mem_ctrl.dram.rank0.pwrStateTime::ACT_PDN            0                       # Time in different power states (Tick)
system.mem_ctrl.dram.rank1.actEnergy     2609883948.672009                       # Energy for activate commands per rank (pJ) (Joule)
system.mem_ctrl.dram.rank1.preEnergy     3469745054.595793                       # Energy for precharge commands per rank (pJ) (Joule)
system.mem_ctrl.dram.rank1.readEnergy    4293122559.801262                       # Energy for read commands per rank (pJ) (Joule)
system.mem_ctrl.dram.rank1.writeEnergy   985462617.215747                       # Energy for write commands per rank (pJ) (Joule)
system.mem_ctrl.dram.rank1.refreshEnergy 107965249242.813904                       # Energy for refresh commands per rank (pJ) (Joule)
system.mem_ctrl.dram.rank1.actBackEnergy 362648036710.591797                       # Energy for active background per rank (pJ) (Joule)
system.mem_ctrl.dram.rank1.preBackEnergy 117453951043.373016                       # Energy for precharge background per rank (pJ) (Joule)
system.mem_ctrl.dram.rank1.actPowerDownEnergy            0                       # Energy for active power-down per rank (pJ) (Joule)
system.mem_ctrl.dram.rank1.prePowerDownEnergy            0                       # Energy for precharge power-down per rank (pJ) (Joule)
system.mem_ctrl.dram.rank1.selfRefreshEnergy            0                       # Energy for self refresh per rank (pJ) (Joule)
system.mem_ctrl.dram.rank1.totalEnergy   599425451177.015503                       # Total energy per rank (pJ) (Joule)
system.mem_ctrl.dram.rank1.averagePower    987.897373                       # Core power per rank (mW) (Watt)
system.mem_ctrl.dram.rank1.totalIdleTime            0                       # Total Idle time Per DRAM Rank (Tick)
system.mem_ctrl.dram.rank1.pwrStateTime::IDLE 177885912391                       # Time in different power states (Tick)
system.mem_ctrl.dram.rank1.pwrStateTime::REF  27276200000                       # Time in different power states (Tick)
system.mem_ctrl.dram.rank1.pwrStateTime::SREF            0                       # Time in different power states (Tick)
system.mem_ctrl.dram.rank1.pwrStateTime::PRE_PDN            0                       # Time in different power states (Tick)
system.mem_ctrl.dram.rank1.pwrStateTime::ACT 401606836868                       # Time in different power states (Tick)
system.mem_ctrl.dram.rank1.pwrStateTime::ACT_PDN            0                       # Time in different power states (Tick)
system.mem_ctrl.power_state.pwrStateResidencyTicks::UNDEFINED 606768949259                       # Cumulative time (in ticks) in various power states (Tick)
system.membus.transDist::ReadResp             1519067                       # Transaction distribution (Count)
system.membus.transDist::WritebackDirty        524417                       # Transaction distribution (Count)
system.membus.transDist::CleanEvict           1485943                       # Transaction distribution (Count)
system.membus.transDist::ReadExReq             524527                       # Transaction distribution (Count)
system.membus.transDist::ReadExResp            524527                       # Transaction distribution (Count)
system.membus.transDist::ReadSharedReq        1519067                       # Transaction distribution (Count)
system.membus.pktCount_system.l2cache.mem_side_port::system.mem_ctrl.port      6097548                       # Packet count per connected requestor and responder (Count)
system.membus.pktCount::total                 6097548                       # Packet count per connected requestor and responder (Count)
system.membus.pktSize_system.l2cache.mem_side_port::system.mem_ctrl.port    164352704                       # Cumulative packet size per connected requestor and responder (Byte)
system.membus.pktSize::total                164352704                       # Cumulative packet size per connected requestor and responder (Byte)
system.membus.snoops                                0                       # Total snoops (Count)
system.membus.snoopTraffic                          0                       # Total snoop traffic (Byte)
system.membus.snoopFanout::samples            2043594                       # Request fanout histogram (Count)
system.membus.snoopFanout::mean                     0                       # Request fanout histogram (Count)
system.membus.snoopFanout::stdev                    0                       # Request fanout histogram (Count)
system.membus.snoopFanout::underflows               0      0.00%      0.00% # Request fanout histogram (Count)
system.membus.snoopFanout::0                  2043594    100.00%    100.00% # Request fanout histogram (Count)
system.membus.snoopFanout::1                        0      0.00%    100.00% # Request fanout histogram (Count)
system.membus.snoopFanout::overflows                0      0.00%    100.00% # Request fanout histogram (Count)
system.membus.snoopFanout::min_value                0                       # Request fanout histogram (Count)
system.membus.snoopFanout::max_value                0                       # Request fanout histogram (Count)
system.membus.snoopFanout::total              2043594                       # Request fanout histogram (Count)
system.membus.power_state.pwrStateResidencyTicks::UNDEFINED 606768949259                       # Cumulative time (in ticks) in various power states (Tick)
system.membus.reqLayer0.occupancy          3565990559                       # Layer occupancy (ticks) (Tick)
system.membus.reqLayer0.utilization               0.0                       # Layer utilization (Ratio)
system.membus.respLayer0.occupancy         5605521739                       # Layer occupancy (ticks) (Tick)
system.membus.respLayer0.utilization              0.0                       # Layer utilization (Ratio)
system.membus.snoop_filter.totRequests        4053954                       # Total number of requests made to the snoop filter. (Count)
system.membus.snoop_filter.hitSingleRequests      2010360                       # Number of requests hitting in the snoop filter with a single holder of the requested data. (Count)
system.membus.snoop_filter.hitMultiRequests            0                       # Number of requests hitting in the snoop filter with multiple (>1) holders of the requested data. (Count)
system.membus.snoop_filter.totSnoops                0                       # Total number of snoops made to the snoop filter. (Count)
system.membus.snoop_filter.hitSingleSnoops            0                       # Number of snoops hitting in the snoop filter with a single holder of the requested data. (Count)
system.membus.snoop_filter.hitMultiSnoops            0                       # Number of snoops hitting in the snoop filter with multiple (>1) holders of the requested data. (Count)
system.workload.inst.arm                            0                       # number of arm instructions executed (Count)
system.workload.inst.quiesce                        0                       # number of quiesce instructions executed (Count)

---------- End Simulation Statistics   ----------
