
---------- Begin Simulation Statistics ----------
simSeconds                                   1.566989                       # Number of seconds simulated (Second)
simTicks                                 1566988784512                       # Number of ticks simulated (Tick)
finalTick                                1566988784512                       # Number of ticks from beginning of simulation (restored from checkpoints and never reset) (Tick)
simFreq                                  1000000000000                       # The number of ticks per simulated second ((Tick/Second))
hostSeconds                                    941.83                       # Real time elapsed on the host (Second)
hostTickRate                               1663776967                       # The number of ticks simulated per host second (ticks/s) ((Tick/Second))
hostMemory                                    2284548                       # Number of bytes of host memory used (Byte)
simInsts                                   1000000000                       # Number of instructions simulated (Count)
simOps                                     1174786462                       # Number of ops (including micro ops) simulated (Count)
hostInstRate                                  1061767                       # Simulator instruction rate (inst/s) ((Count/Second))
hostOpRate                                    1247349                       # Simulator op (including micro ops) rate (op/s) ((Count/Second))
system.clk_domain.clock                           500                       # Clock period in ticks (Tick)
system.clk_domain.voltage_domain.voltage            1                       # Voltage in Volts (Volt)
system.cpu.numCycles                       2818325152                       # Number of cpu cycles simulated (Cycle)
system.cpu.numWorkItemsStarted                      0                       # Number of work items this cpu started (Count)
system.cpu.numWorkItemsCompleted                    0                       # Number of work items this cpu completed (Count)
system.cpu.dcache.demandHits::cpu.data      220712964                       # number of demand (read+write) hits (Count)
system.cpu.dcache.demandHits::total         220712964                       # number of demand (read+write) hits (Count)
system.cpu.dcache.overallHits::cpu.data     220712964                       # number of overall hits (Count)
system.cpu.dcache.overallHits::total        220712964                       # number of overall hits (Count)
system.cpu.dcache.demandMisses::cpu.data      2043349                       # number of demand (read+write) misses (Count)
system.cpu.dcache.demandMisses::total         2043349                       # number of demand (read+write) misses (Count)
system.cpu.dcache.overallMisses::cpu.data      2043349                       # number of overall misses (Count)
system.cpu.dcache.overallMisses::total        2043349                       # number of overall misses (Count)
system.cpu.dcache.demandMissLatency::cpu.data 209525261776                       # number of demand (read+write) miss ticks (Tick)
system.cpu.dcache.demandMissLatency::total 209525261776                       # number of demand (read+write) miss ticks (Tick)
system.cpu.dcache.overallMissLatency::cpu.data 209525261776                       # number of overall miss ticks (Tick)
system.cpu.dcache.overallMissLatency::total 209525261776                       # number of overall miss ticks (Tick)
system.cpu.dcache.demandAccesses::cpu.data    222756313                       # number of demand (read+write) accesses (Count)
system.cpu.dcache.demandAccesses::total     222756313                       # number of demand (read+write) accesses (Count)
system.cpu.dcache.overallAccesses::cpu.data    222756313                       # number of overall (read+write) accesses (Count)
system.cpu.dcache.overallAccesses::total    222756313                       # number of overall (read+write) accesses (Count)
system.cpu.dcache.demandMissRate::cpu.data     0.009173                       # miss rate for demand accesses (Ratio)
system.cpu.dcache.demandMissRate::total      0.009173                       # miss rate for demand accesses (Ratio)
system.cpu.dcache.overallMissRate::cpu.data     0.009173                       # miss rate for overall accesses (Ratio)
system.cpu.dcache.overallMissRate::total     0.009173                       # miss rate for overall accesses (Ratio)
system.cpu.dcache.demandAvgMissLatency::cpu.data 102540.124950                       # average overall miss latency in ticks ((Tick/Count))
system.cpu.dcache.demandAvgMissLatency::total 102540.124950                       # average overall miss latency in ticks ((Tick/Count))
system.cpu.dcache.overallAvgMissLatency::cpu.data 102540.124950                       # average overall miss latency ((Tick/Count))
system.cpu.dcache.overallAvgMissLatency::total 102540.124950                       # average overall miss latency ((Tick/Count))
system.cpu.dcache.blockedCycles::no_mshrs            0                       # number of cycles access was blocked (Cycle)
system.cpu.dcache.blockedCycles::no_targets            0                       # number of cycles access was blocked (Cycle)
system.cpu.dcache.blockedCauses::no_mshrs            0                       # number of times access was blocked (Count)
system.cpu.dcache.blockedCauses::no_targets            0                       # number of times access was blocked (Count)
system.cpu.dcache.avgBlocked::no_mshrs            nan                       # average number of cycles each access was blocked ((Cycle/Count))
system.cpu.dcache.avgBlocked::no_targets          nan                       # average number of cycles each access was blocked ((Cycle/Count))
system.cpu.dcache.writebacks::writebacks       524419                       # number of writebacks (Count)
system.cpu.dcache.writebacks::total            524419                       # number of writebacks (Count)
system.cpu.dcache.demandMshrMisses::cpu.data      2043349                       # number of demand (read+write) MSHR misses (Count)
system.cpu.dcache.demandMshrMisses::total      2043349                       # number of demand (read+write) MSHR misses (Count)
system.cpu.dcache.overallMshrMisses::cpu.data      2043349                       # number of overall MSHR misses (Count)
system.cpu.dcache.overallMshrMisses::total      2043349                       # number of overall MSHR misses (Count)
system.cpu.dcache.demandMshrMissLatency::cpu.data 206662351516                       # number of demand (read+write) MSHR miss ticks (Tick)
system.cpu.dcache.demandMshrMissLatency::total 206662351516                       # number of demand (read+write) MSHR miss ticks (Tick)
system.cpu.dcache.overallMshrMissLatency::cpu.data 206662351516                       # number of overall MSHR miss ticks (Tick)
system.cpu.dcache.overallMshrMissLatency::total 206662351516                       # number of overall MSHR miss ticks (Tick)
system.cpu.dcache.demandMshrMissRate::cpu.data     0.009173                       # mshr miss ratio for demand accesses (Ratio)
system.cpu.dcache.demandMshrMissRate::total     0.009173                       # mshr miss ratio for demand accesses (Ratio)
system.cpu.dcache.overallMshrMissRate::cpu.data     0.009173                       # mshr miss ratio for overall accesses (Ratio)
system.cpu.dcache.overallMshrMissRate::total     0.009173                       # mshr miss ratio for overall accesses (Ratio)
system.cpu.dcache.demandAvgMshrMissLatency::cpu.data 101139.037686                       # average overall mshr miss latency ((Tick/Count))
system.cpu.dcache.demandAvgMshrMissLatency::total 101139.037686                       # average overall mshr miss latency ((Tick/Count))
system.cpu.dcache.overallAvgMshrMissLatency::cpu.data 101139.037686                       # average overall mshr miss latency ((Tick/Count))
system.cpu.dcache.overallAvgMshrMissLatency::total 101139.037686                       # average overall mshr miss latency ((Tick/Count))
system.cpu.dcache.replacements                2042837                       # number of replacements (Count)
system.cpu.dcache.LoadLockedReq.hits::cpu.data           41                       # number of LoadLockedReq hits (Count)
system.cpu.dcache.LoadLockedReq.hits::total           41                       # number of LoadLockedReq hits (Count)
system.cpu.dcache.LoadLockedReq.accesses::cpu.data           41                       # number of LoadLockedReq accesses(hits+misses) (Count)
system.cpu.dcache.LoadLockedReq.accesses::total           41                       # number of LoadLockedReq accesses(hits+misses) (Count)
system.cpu.dcache.ReadReq.hits::cpu.data    116116246                       # number of ReadReq hits (Count)
system.cpu.dcache.ReadReq.hits::total       116116246                       # number of ReadReq hits (Count)
system.cpu.dcache.ReadReq.misses::cpu.data      1518818                       # number of ReadReq misses (Count)
system.cpu.dcache.ReadReq.misses::total       1518818                       # number of ReadReq misses (Count)
system.cpu.dcache.ReadReq.missLatency::cpu.data 162753935180                       # number of ReadReq miss ticks (Tick)
system.cpu.dcache.ReadReq.missLatency::total 162753935180                       # number of ReadReq miss ticks (Tick)
system.cpu.dcache.ReadReq.accesses::cpu.data    117635064                       # number of ReadReq accesses(hits+misses) (Count)
system.cpu.dcache.ReadReq.accesses::total    117635064                       # number of ReadReq accesses(hits+misses) (Count)
system.cpu.dcache.ReadReq.missRate::cpu.data     0.012911                       # miss rate for ReadReq accesses (Ratio)
system.cpu.dcache.ReadReq.missRate::total     0.012911                       # miss rate for ReadReq accesses (Ratio)
system.cpu.dcache.ReadReq.avgMissLatency::cpu.data 107158.287023                       # average ReadReq miss latency ((Tick/Count))
system.cpu.dcache.ReadReq.avgMissLatency::total 107158.287023                       # average ReadReq miss latency ((Tick/Count))
system.cpu.dcache.ReadReq.mshrMisses::cpu.data      1518818                       # number of ReadReq MSHR misses (Count)
system.cpu.dcache.ReadReq.mshrMisses::total      1518818                       # number of ReadReq MSHR misses (Count)
system.cpu.dcache.ReadReq.mshrMissLatency::cpu.data 160637527876                       # number of ReadReq MSHR miss ticks (Tick)
system.cpu.dcache.ReadReq.mshrMissLatency::total 160637527876                       # number of ReadReq MSHR miss ticks (Tick)
system.cpu.dcache.ReadReq.mshrMissRate::cpu.data     0.012911                       # mshr miss rate for ReadReq accesses (Ratio)
system.cpu.dcache.ReadReq.mshrMissRate::total     0.012911                       # mshr miss rate for ReadReq accesses (Ratio)
system.cpu.dcache.ReadReq.avgMshrMissLatency::cpu.data 105764.830201                       # average ReadReq mshr miss latency ((Tick/Count))
system.cpu.dcache.ReadReq.avgMshrMissLatency::total 105764.830201                       # average ReadReq mshr miss latency ((Tick/Count))
system.cpu.dcache.StoreCondReq.hits::cpu.data           41                       # number of StoreCondReq hits (Count)
system.cpu.dcache.StoreCondReq.hits::total           41                       # number of StoreCondReq hits (Count)
system.cpu.dcache.StoreCondReq.accesses::cpu.data           41                       # number of StoreCondReq accesses(hits+misses) (Count)
system.cpu.dcache.StoreCondReq.accesses::total           41                       # number of StoreCondReq accesses(hits+misses) (Count)
system.cpu.dcache.WriteReq.hits::cpu.data    104596718                       # number of WriteReq hits (Count)
system.cpu.dcache.WriteReq.hits::total      104596718                       # number of WriteReq hits (Count)
system.cpu.dcache.WriteReq.misses::cpu.data       524531                       # number of WriteReq misses (Count)
system.cpu.dcache.WriteReq.misses::total       524531                       # number of WriteReq misses (Count)
system.cpu.dcache.WriteReq.missLatency::cpu.data  46771326596                       # number of WriteReq miss ticks (Tick)
system.cpu.dcache.WriteReq.missLatency::total  46771326596                       # number of WriteReq miss ticks (Tick)
system.cpu.dcache.WriteReq.accesses::cpu.data    105121249                       # number of WriteReq accesses(hits+misses) (Count)
system.cpu.dcache.WriteReq.accesses::total    105121249                       # number of WriteReq accesses(hits+misses) (Count)
system.cpu.dcache.WriteReq.missRate::cpu.data     0.004990                       # miss rate for WriteReq accesses (Ratio)
system.cpu.dcache.WriteReq.missRate::total     0.004990                       # miss rate for WriteReq accesses (Ratio)
system.cpu.dcache.WriteReq.avgMissLatency::cpu.data 89167.897791                       # average WriteReq miss latency ((Tick/Count))
system.cpu.dcache.WriteReq.avgMissLatency::total 89167.897791                       # average WriteReq miss latency ((Tick/Count))
system.cpu.dcache.WriteReq.mshrMisses::cpu.data       524531                       # number of WriteReq MSHR misses (Count)
system.cpu.dcache.WriteReq.mshrMisses::total       524531                       # number of WriteReq MSHR misses (Count)
system.cpu.dcache.WriteReq.mshrMissLatency::cpu.data  46024823640                       # number of WriteReq MSHR miss ticks (Tick)
system.cpu.dcache.WriteReq.mshrMissLatency::total  46024823640                       # number of WriteReq MSHR miss ticks (Tick)
system.cpu.dcache.WriteReq.mshrMissRate::cpu.data     0.004990                       # mshr miss rate for WriteReq accesses (Ratio)
system.cpu.dcache.WriteReq.mshrMissRate::total     0.004990                       # mshr miss rate for WriteReq accesses (Ratio)
system.cpu.dcache.WriteReq.avgMshrMissLatency::cpu.data 87744.716023                       # average WriteReq mshr miss latency ((Tick/Count))
system.cpu.dcache.WriteReq.avgMshrMissLatency::total 87744.716023                       # average WriteReq mshr miss latency ((Tick/Count))
system.cpu.dcache.power_state.pwrStateResidencyTicks::UNDEFINED 1566988784512                       # Cumulative time (in ticks) in various power states (Tick)
system.cpu.dcache.tags.tagsInUse           511.894984                       # Average ticks per tags in use ((Tick/Count))
system.cpu.dcache.tags.totalRefs            222756395                       # Total number of references to valid blocks. (Count)
system.cpu.dcache.tags.sampledRefs            2043349                       # Sample count of references to valid blocks. (Count)
system.cpu.dcache.tags.avgRefs             109.015344                       # Average number of references to valid blocks. ((Count/Count))
system.cpu.dcache.tags.warmupTick              191500                       # The tick when the warmup percentage was hit. (Tick)
system.cpu.dcache.tags.occupancies::cpu.data   511.894984                       # Average occupied blocks per tick, per requestor ((Count/Tick))
system.cpu.dcache.tags.avgOccs::cpu.data     0.999795                       # Average percentage of cache occupancy ((Ratio/Tick))
system.cpu.dcache.tags.avgOccs::total        0.999795                       # Average percentage of cache occupancy ((Ratio/Tick))
system.cpu.dcache.tags.occupanciesTaskId::1024          512                       # Occupied blocks per task id (Count)
system.cpu.dcache.tags.ageTaskId_1024::0            3                       # Occupied blocks per task id, per block age (Count)
system.cpu.dcache.tags.ageTaskId_1024::3           12                       # Occupied blocks per task id, per block age (Count)
system.cpu.dcache.tags.ageTaskId_1024::4          497                       # Occupied blocks per task id, per block age (Count)
system.cpu.dcache.tags.ratioOccsTaskId::1024            1                       # Ratio of occupied blocks and all blocks, per task id (Ratio)
system.cpu.dcache.tags.tagAccesses          893068929                       # Number of tag accesses (Count)
system.cpu.dcache.tags.dataAccesses         893068929                       # Number of data accesses (Count)
system.cpu.dcache.tags.power_state.pwrStateResidencyTicks::UNDEFINED 1566988784512                       # Cumulative time (in ticks) in various power states (Tick)
system.cpu.exec_context.thread_0.numInsts   1000000000                       # Number of instructions committed (Count)
system.cpu.exec_context.thread_0.numOps    1174786462                       # Number of ops (including micro ops) committed (Count)
system.cpu.exec_context.thread_0.numIntAluAccesses   1114432600                       # Number of integer alu accesses (Count)
system.cpu.exec_context.thread_0.numFpAluAccesses            0                       # Number of float alu accesses (Count)
system.cpu.exec_context.thread_0.numVecAluAccesses            0                       # Number of vector alu accesses (Count)
system.cpu.exec_context.thread_0.numCallsReturns     76560453                       # Number of times a function call or return occured (Count)
system.cpu.exec_context.thread_0.numCondCtrlInsts     92718620                       # Number of instructions that are conditional controls (Count)
system.cpu.exec_context.thread_0.numIntInsts   1114432600                       # Number of integer instructions (Count)
system.cpu.exec_context.thread_0.numFpInsts            0                       # Number of float instructions (Count)
system.cpu.exec_context.thread_0.numVecInsts            0                       # Number of vector instructions (Count)
system.cpu.exec_context.thread_0.numIntRegReads   1429836349                       # Number of times the integer registers were read (Count)
system.cpu.exec_context.thread_0.numIntRegWrites    846370638                       # Number of times the integer registers were written (Count)
system.cpu.exec_context.thread_0.numFpRegReads            0                       # Number of times the floating registers were read (Count)
system.cpu.exec_context.thread_0.numFpRegWrites            0                       # Number of times the floating registers were written (Count)
system.cpu.exec_context.thread_0.numVecRegReads           16                       # Number of times the vector registers were read (Count)
system.cpu.exec_context.thread_0.numVecRegWrites            0                       # Number of times the vector registers were written (Count)
system.cpu.exec_context.thread_0.numVecPredRegReads            0                       # Number of times the predicate registers were read (Count)
system.cpu.exec_context.thread_0.numVecPredRegWrites            0                       # Number of times the predicate registers were written (Count)
system.cpu.exec_context.thread_0.numCCRegReads   3886387617                       # Number of times the CC registers were read (Count)
system.cpu.exec_context.thread_0.numCCRegWrites    452205844                       # Number of times the CC registers were written (Count)
system.cpu.exec_context.thread_0.numMiscRegReads    222764682                       # Number of times the Misc registers were read (Count)
system.cpu.exec_context.thread_0.numMiscRegWrites           82                       # Number of times the Misc registers were written (Count)
system.cpu.exec_context.thread_0.numMemRefs    225797313                       # Number of memory refs (Count)
system.cpu.exec_context.thread_0.numLoadInsts    120667807                       # Number of load instructions (Count)
system.cpu.exec_context.thread_0.numStoreInsts    105129506                       # Number of store instructions (Count)
system.cpu.exec_context.thread_0.numIdleCycles            0                       # Number of idle cycles (Cycle)
system.cpu.exec_context.thread_0.numBusyCycles   2818325152                       # Number of busy cycles (Cycle)
system.cpu.exec_context.thread_0.notIdleFraction            1                       # Percentage of non-idle cycles (Ratio)
system.cpu.exec_context.thread_0.idleFraction            0                       # Percentage of idle cycles (Ratio)
system.cpu.exec_context.thread_0.numBranches    139955287                       # Number of branches fetched (Count)
system.cpu.exec_context.thread_0.statExecutedInstType::No_OpClass            0      0.00%      0.00% # Class of executed instruction. (Count)
system.cpu.exec_context.thread_0.statExecutedInstType::IntAlu    931875799     79.12%     79.12% # Class of executed instruction. (Count)
system.cpu.exec_context.thread_0.statExecutedInstType::IntMult     20154297      1.71%     80.83% # Class of executed instruction. (Count)
system.cpu.exec_context.thread_0.statExecutedInstType::IntDiv            0      0.00%     80.83% # Class of executed instruction. (Count)
system.cpu.exec_context.thread_0.statExecutedInstType::FloatAdd            0      0.00%     80.83% # Class of executed instruction. (Count)
system.cpu.exec_context.thread_0.statExecutedInstType::FloatCmp            0      0.00%     80.83% # Class of executed instruction. (Count)
system.cpu.exec_context.thread_0.statExecutedInstType::FloatCvt            0      0.00%     80.83% # Class of executed instruction. (Count)
system.cpu.exec_context.thread_0.statExecutedInstType::FloatMult            0      0.00%     80.83% # Class of executed instruction. (Count)
system.cpu.exec_context.thread_0.statExecutedInstType::FloatMultAcc            0      0.00%     80.83% # Class of executed instruction. (Count)
system.cpu.exec_context.thread_0.statExecutedInstType::FloatDiv            0      0.00%     80.83% # Class of executed instruction. (Count)
system.cpu.exec_context.thread_0.statExecutedInstType::FloatMisc            0      0.00%     80.83% # Class of executed instruction. (Count)
system.cpu.exec_context.thread_0.statExecutedInstType::FloatSqrt            0      0.00%     80.83% # Class of executed instruction. (Count)
system.cpu.exec_context.thread_0.statExecutedInstType::SimdAdd            0      0.00%     80.83% # Class of executed instruction. (Count)
system.cpu.exec_context.thread_0.statExecutedInstType::SimdAddAcc            0      0.00%     80.83% # Class of executed instruction. (Count)
system.cpu.exec_context.thread_0.statExecutedInstType::SimdAlu            0      0.00%     80.83% # Class of executed instruction. (Count)
system.cpu.exec_context.thread_0.statExecutedInstType::SimdCmp            0      0.00%     80.83% # Class of executed instruction. (Count)
system.cpu.exec_context.thread_0.statExecutedInstType::SimdCvt            0      0.00%     80.83% # Class of executed instruction. (Count)
system.cpu.exec_context.thread_0.statExecutedInstType::SimdMisc            0      0.00%     80.83% # Class of executed instruction. (Count)
system.cpu.exec_context.thread_0.statExecutedInstType::SimdMult            0      0.00%     80.83% # Class of executed instruction. (Count)
system.cpu.exec_context.thread_0.statExecutedInstType::SimdMultAcc            0      0.00%     80.83% # Class of executed instruction. (Count)
system.cpu.exec_context.thread_0.statExecutedInstType::SimdShift            0      0.00%     80.83% # Class of executed instruction. (Count)
system.cpu.exec_context.thread_0.statExecutedInstType::SimdShiftAcc            0      0.00%     80.83% # Class of executed instruction. (Count)
system.cpu.exec_context.thread_0.statExecutedInstType::SimdDiv            0      0.00%     80.83% # Class of executed instruction. (Count)
system.cpu.exec_context.thread_0.statExecutedInstType::SimdSqrt            0      0.00%     80.83% # Class of executed instruction. (Count)
system.cpu.exec_context.thread_0.statExecutedInstType::SimdFloatAdd            0      0.00%     80.83% # Class of executed instruction. (Count)
system.cpu.exec_context.thread_0.statExecutedInstType::SimdFloatAlu            0      0.00%     80.83% # Class of executed instruction. (Count)
system.cpu.exec_context.thread_0.statExecutedInstType::SimdFloatCmp            0      0.00%     80.83% # Class of executed instruction. (Count)
system.cpu.exec_context.thread_0.statExecutedInstType::SimdFloatCvt            0      0.00%     80.83% # Class of executed instruction. (Count)
system.cpu.exec_context.thread_0.statExecutedInstType::SimdFloatDiv            0      0.00%     80.83% # Class of executed instruction. (Count)
system.cpu.exec_context.thread_0.statExecutedInstType::SimdFloatMisc            0      0.00%     80.83% # Class of executed instruction. (Count)
system.cpu.exec_context.thread_0.statExecutedInstType::SimdFloatMult            0      0.00%     80.83% # Class of executed instruction. (Count)
system.cpu.exec_context.thread_0.statExecutedInstType::SimdFloatMultAcc            0      0.00%     80.83% # Class of executed instruction. (Count)
system.cpu.exec_context.thread_0.statExecutedInstType::SimdFloatSqrt            0      0.00%     80.83% # Class of executed instruction. (Count)
system.cpu.exec_context.thread_0.statExecutedInstType::SimdReduceAdd            0      0.00%     80.83% # Class of executed instruction. (Count)
system.cpu.exec_context.thread_0.statExecutedInstType::SimdReduceAlu            0      0.00%     80.83% # Class of executed instruction. (Count)
system.cpu.exec_context.thread_0.statExecutedInstType::SimdReduceCmp            0      0.00%     80.83% # Class of executed instruction. (Count)
system.cpu.exec_context.thread_0.statExecutedInstType::SimdFloatReduceAdd            0      0.00%     80.83% # Class of executed instruction. (Count)
system.cpu.exec_context.thread_0.statExecutedInstType::SimdFloatReduceCmp            0      0.00%     80.83% # Class of executed instruction. (Count)
system.cpu.exec_context.thread_0.statExecutedInstType::SimdAes            0      0.00%     80.83% # Class of executed instruction. (Count)
system.cpu.exec_context.thread_0.statExecutedInstType::SimdAesMix            0      0.00%     80.83% # Class of executed instruction. (Count)
system.cpu.exec_context.thread_0.statExecutedInstType::SimdSha1Hash            0      0.00%     80.83% # Class of executed instruction. (Count)
system.cpu.exec_context.thread_0.statExecutedInstType::SimdSha1Hash2            0      0.00%     80.83% # Class of executed instruction. (Count)
system.cpu.exec_context.thread_0.statExecutedInstType::SimdSha256Hash            0      0.00%     80.83% # Class of executed instruction. (Count)
system.cpu.exec_context.thread_0.statExecutedInstType::SimdSha256Hash2            0      0.00%     80.83% # Class of executed instruction. (Count)
system.cpu.exec_context.thread_0.statExecutedInstType::SimdShaSigma2            0      0.00%     80.83% # Class of executed instruction. (Count)
system.cpu.exec_context.thread_0.statExecutedInstType::SimdShaSigma3            0      0.00%     80.83% # Class of executed instruction. (Count)
system.cpu.exec_context.thread_0.statExecutedInstType::SimdPredAlu            0      0.00%     80.83% # Class of executed instruction. (Count)
system.cpu.exec_context.thread_0.statExecutedInstType::MemRead    120667807     10.24%     91.07% # Class of executed instruction. (Count)
system.cpu.exec_context.thread_0.statExecutedInstType::MemWrite    105129506      8.93%    100.00% # Class of executed instruction. (Count)
system.cpu.exec_context.thread_0.statExecutedInstType::FloatMemRead            0      0.00%    100.00% # Class of executed instruction. (Count)
system.cpu.exec_context.thread_0.statExecutedInstType::FloatMemWrite            0      0.00%    100.00% # Class of executed instruction. (Count)
system.cpu.exec_context.thread_0.statExecutedInstType::IprAccess            0      0.00%    100.00% # Class of executed instruction. (Count)
system.cpu.exec_context.thread_0.statExecutedInstType::InstPrefetch            0      0.00%    100.00% # Class of executed instruction. (Count)
system.cpu.exec_context.thread_0.statExecutedInstType::total   1177827409                       # Class of executed instruction. (Count)
system.cpu.icache.demandHits::cpu.inst     1000007970                       # number of demand (read+write) hits (Count)
system.cpu.icache.demandHits::total        1000007970                       # number of demand (read+write) hits (Count)
system.cpu.icache.overallHits::cpu.inst    1000007970                       # number of overall hits (Count)
system.cpu.icache.overallHits::total       1000007970                       # number of overall hits (Count)
system.cpu.icache.demandMisses::cpu.inst          264                       # number of demand (read+write) misses (Count)
system.cpu.icache.demandMisses::total             264                       # number of demand (read+write) misses (Count)
system.cpu.icache.overallMisses::cpu.inst          264                       # number of overall misses (Count)
system.cpu.icache.overallMisses::total            264                       # number of overall misses (Count)
system.cpu.icache.demandMissLatency::cpu.inst     21762952                       # number of demand (read+write) miss ticks (Tick)
system.cpu.icache.demandMissLatency::total     21762952                       # number of demand (read+write) miss ticks (Tick)
system.cpu.icache.overallMissLatency::cpu.inst     21762952                       # number of overall miss ticks (Tick)
system.cpu.icache.overallMissLatency::total     21762952                       # number of overall miss ticks (Tick)
system.cpu.icache.demandAccesses::cpu.inst   1000008234                       # number of demand (read+write) accesses (Count)
system.cpu.icache.demandAccesses::total    1000008234                       # number of demand (read+write) accesses (Count)
system.cpu.icache.overallAccesses::cpu.inst   1000008234                       # number of overall (read+write) accesses (Count)
system.cpu.icache.overallAccesses::total   1000008234                       # number of overall (read+write) accesses (Count)
system.cpu.icache.demandMissRate::cpu.inst     0.000000                       # miss rate for demand accesses (Ratio)
system.cpu.icache.demandMissRate::total      0.000000                       # miss rate for demand accesses (Ratio)
system.cpu.icache.overallMissRate::cpu.inst     0.000000                       # miss rate for overall accesses (Ratio)
system.cpu.icache.overallMissRate::total     0.000000                       # miss rate for overall accesses (Ratio)
system.cpu.icache.demandAvgMissLatency::cpu.inst 82435.424242                       # average overall miss latency in ticks ((Tick/Count))
system.cpu.icache.demandAvgMissLatency::total 82435.424242                       # average overall miss latency in ticks ((Tick/Count))
system.cpu.icache.overallAvgMissLatency::cpu.inst 82435.424242                       # average overall miss latency ((Tick/Count))
system.cpu.icache.overallAvgMissLatency::total 82435.424242                       # average overall miss latency ((Tick/Count))
system.cpu.icache.blockedCycles::no_mshrs            0                       # number of cycles access was blocked (Cycle)
system.cpu.icache.blockedCycles::no_targets            0                       # number of cycles access was blocked (Cycle)
system.cpu.icache.blockedCauses::no_mshrs            0                       # number of times access was blocked (Count)
system.cpu.icache.blockedCauses::no_targets            0                       # number of times access was blocked (Count)
system.cpu.icache.avgBlocked::no_mshrs            nan                       # average number of cycles each access was blocked ((Cycle/Count))
system.cpu.icache.avgBlocked::no_targets          nan                       # average number of cycles each access was blocked ((Cycle/Count))
system.cpu.icache.demandMshrMisses::cpu.inst          264                       # number of demand (read+write) MSHR misses (Count)
system.cpu.icache.demandMshrMisses::total          264                       # number of demand (read+write) MSHR misses (Count)
system.cpu.icache.overallMshrMisses::cpu.inst          264                       # number of overall MSHR misses (Count)
system.cpu.icache.overallMshrMisses::total          264                       # number of overall MSHR misses (Count)
system.cpu.icache.demandMshrMissLatency::cpu.inst     21389940                       # number of demand (read+write) MSHR miss ticks (Tick)
system.cpu.icache.demandMshrMissLatency::total     21389940                       # number of demand (read+write) MSHR miss ticks (Tick)
system.cpu.icache.overallMshrMissLatency::cpu.inst     21389940                       # number of overall MSHR miss ticks (Tick)
system.cpu.icache.overallMshrMissLatency::total     21389940                       # number of overall MSHR miss ticks (Tick)
system.cpu.icache.demandMshrMissRate::cpu.inst     0.000000                       # mshr miss ratio for demand accesses (Ratio)
system.cpu.icache.demandMshrMissRate::total     0.000000                       # mshr miss ratio for demand accesses (Ratio)
system.cpu.icache.overallMshrMissRate::cpu.inst     0.000000                       # mshr miss ratio for overall accesses (Ratio)
system.cpu.icache.overallMshrMissRate::total     0.000000                       # mshr miss ratio for overall accesses (Ratio)
system.cpu.icache.demandAvgMshrMissLatency::cpu.inst 81022.500000                       # average overall mshr miss latency ((Tick/Count))
system.cpu.icache.demandAvgMshrMissLatency::total 81022.500000                       # average overall mshr miss latency ((Tick/Count))
system.cpu.icache.overallAvgMshrMissLatency::cpu.inst 81022.500000                       # average overall mshr miss latency ((Tick/Count))
system.cpu.icache.overallAvgMshrMissLatency::total 81022.500000                       # average overall mshr miss latency ((Tick/Count))
system.cpu.icache.replacements                      3                       # number of replacements (Count)
system.cpu.icache.ReadReq.hits::cpu.inst   1000007970                       # number of ReadReq hits (Count)
system.cpu.icache.ReadReq.hits::total      1000007970                       # number of ReadReq hits (Count)
system.cpu.icache.ReadReq.misses::cpu.inst          264                       # number of ReadReq misses (Count)
system.cpu.icache.ReadReq.misses::total           264                       # number of ReadReq misses (Count)
system.cpu.icache.ReadReq.missLatency::cpu.inst     21762952                       # number of ReadReq miss ticks (Tick)
system.cpu.icache.ReadReq.missLatency::total     21762952                       # number of ReadReq miss ticks (Tick)
system.cpu.icache.ReadReq.accesses::cpu.inst   1000008234                       # number of ReadReq accesses(hits+misses) (Count)
system.cpu.icache.ReadReq.accesses::total   1000008234                       # number of ReadReq accesses(hits+misses) (Count)
system.cpu.icache.ReadReq.missRate::cpu.inst     0.000000                       # miss rate for ReadReq accesses (Ratio)
system.cpu.icache.ReadReq.missRate::total     0.000000                       # miss rate for ReadReq accesses (Ratio)
system.cpu.icache.ReadReq.avgMissLatency::cpu.inst 82435.424242                       # average ReadReq miss latency ((Tick/Count))
system.cpu.icache.ReadReq.avgMissLatency::total 82435.424242                       # average ReadReq miss latency ((Tick/Count))
system.cpu.icache.ReadReq.mshrMisses::cpu.inst          264                       # number of ReadReq MSHR misses (Count)
system.cpu.icache.ReadReq.mshrMisses::total          264                       # number of ReadReq MSHR misses (Count)
system.cpu.icache.ReadReq.mshrMissLatency::cpu.inst     21389940                       # number of ReadReq MSHR miss ticks (Tick)
system.cpu.icache.ReadReq.mshrMissLatency::total     21389940                       # number of ReadReq MSHR miss ticks (Tick)
system.cpu.icache.ReadReq.mshrMissRate::cpu.inst     0.000000                       # mshr miss rate for ReadReq accesses (Ratio)
system.cpu.icache.ReadReq.mshrMissRate::total     0.000000                       # mshr miss rate for ReadReq accesses (Ratio)
system.cpu.icache.ReadReq.avgMshrMissLatency::cpu.inst 81022.500000                       # average ReadReq mshr miss latency ((Tick/Count))
system.cpu.icache.ReadReq.avgMshrMissLatency::total 81022.500000                       # average ReadReq mshr miss latency ((Tick/Count))
system.cpu.icache.power_state.pwrStateResidencyTicks::UNDEFINED 1566988784512                       # Cumulative time (in ticks) in various power states (Tick)
system.cpu.icache.tags.tagsInUse           244.727366                       # Average ticks per tags in use ((Tick/Count))
system.cpu.icache.tags.totalRefs           1000008234                       # Total number of references to valid blocks. (Count)
system.cpu.icache.tags.sampledRefs                264                       # Sample count of references to valid blocks. (Count)
system.cpu.icache.tags.avgRefs           3787909.977273                       # Average number of references to valid blocks. ((Count/Count))
system.cpu.icache.tags.warmupTick               97000                       # The tick when the warmup percentage was hit. (Tick)
system.cpu.icache.tags.occupancies::cpu.inst   244.727366                       # Average occupied blocks per tick, per requestor ((Count/Tick))
system.cpu.icache.tags.avgOccs::cpu.inst     0.477983                       # Average percentage of cache occupancy ((Ratio/Tick))
system.cpu.icache.tags.avgOccs::total        0.477983                       # Average percentage of cache occupancy ((Ratio/Tick))
system.cpu.icache.tags.occupanciesTaskId::1024          261                       # Occupied blocks per task id (Count)
system.cpu.icache.tags.ageTaskId_1024::4          261                       # Occupied blocks per task id, per block age (Count)
system.cpu.icache.tags.ratioOccsTaskId::1024     0.509766                       # Ratio of occupied blocks and all blocks, per task id (Ratio)
system.cpu.icache.tags.tagAccesses         4000033200                       # Number of tag accesses (Count)
system.cpu.icache.tags.dataAccesses        4000033200                       # Number of data accesses (Count)
system.cpu.icache.tags.power_state.pwrStateResidencyTicks::UNDEFINED 1566988784512                       # Cumulative time (in ticks) in various power states (Tick)
system.cpu.mmu.alignFaults                          0                       # Number of MMU faults due to alignment restrictions (Count)
system.cpu.mmu.prefetchFaults                       0                       # Number of MMU faults due to prefetch (Count)
system.cpu.mmu.domainFaults                         0                       # Number of MMU faults due to domain restrictions (Count)
system.cpu.mmu.permsFaults                          0                       # Number of MMU faults due to permissions restrictions (Count)
system.cpu.mmu.dtb.readHits                         0                       # Read hits (Count)
system.cpu.mmu.dtb.readMisses                       0                       # Read misses (Count)
system.cpu.mmu.dtb.writeHits                        0                       # Write hits (Count)
system.cpu.mmu.dtb.writeMisses                      0                       # Write misses (Count)
system.cpu.mmu.dtb.inserts                          0                       # Number of times an entry is inserted into the TLB (Count)
system.cpu.mmu.dtb.flushTlb                         0                       # Number of times complete TLB was flushed (Count)
system.cpu.mmu.dtb.flushTlbMva                      0                       # Number of times TLB was flushed by MVA (Count)
system.cpu.mmu.dtb.flushTlbMvaAsid                  0                       # Number of times TLB was flushed by MVA & ASID (Count)
system.cpu.mmu.dtb.flushTlbAsid                     0                       # Number of times TLB was flushed by ASID (Count)
system.cpu.mmu.dtb.flushedEntries                   0                       # Number of entries that have been flushed from TLB (Count)
system.cpu.mmu.dtb.readAccesses                     0                       # Read accesses (Count)
system.cpu.mmu.dtb.writeAccesses                    0                       # Write accesses (Count)
system.cpu.mmu.dtb.hits                             0                       # Total TLB (inst and data) hits (Count)
system.cpu.mmu.dtb.misses                           0                       # Total TLB (inst and data) misses (Count)
system.cpu.mmu.dtb.accesses                         0                       # Total TLB (inst and data) accesses (Count)
system.cpu.mmu.dtb_walker.walks                     0                       # Table walker walks requested (Count)
system.cpu.mmu.dtb_walker.requestOrigin_Requested::Data            0                       # Table walker requests started/completed, data/inst (Count)
system.cpu.mmu.dtb_walker.requestOrigin_Requested::Inst            0                       # Table walker requests started/completed, data/inst (Count)
system.cpu.mmu.dtb_walker.requestOrigin_Requested::total            0                       # Table walker requests started/completed, data/inst (Count)
system.cpu.mmu.dtb_walker.requestOrigin_Completed::Data            0                       # Table walker requests started/completed, data/inst (Count)
system.cpu.mmu.dtb_walker.requestOrigin_Completed::Inst            0                       # Table walker requests started/completed, data/inst (Count)
system.cpu.mmu.dtb_walker.requestOrigin_Completed::total            0                       # Table walker requests started/completed, data/inst (Count)
system.cpu.mmu.dtb_walker.requestOrigin::total            0                       # Table walker requests started/completed, data/inst (Count)
system.cpu.mmu.dtb_walker.power_state.pwrStateResidencyTicks::UNDEFINED 1566988784512                       # Cumulative time (in ticks) in various power states (Tick)
system.cpu.mmu.itb.instHits                         0                       # Inst hits (Count)
system.cpu.mmu.itb.instMisses                       0                       # Inst misses (Count)
system.cpu.mmu.itb.inserts                          0                       # Number of times an entry is inserted into the TLB (Count)
system.cpu.mmu.itb.flushTlb                         0                       # Number of times complete TLB was flushed (Count)
system.cpu.mmu.itb.flushTlbMva                      0                       # Number of times TLB was flushed by MVA (Count)
system.cpu.mmu.itb.flushTlbMvaAsid                  0                       # Number of times TLB was flushed by MVA & ASID (Count)
system.cpu.mmu.itb.flushTlbAsid                     0                       # Number of times TLB was flushed by ASID (Count)
system.cpu.mmu.itb.flushedEntries                   0                       # Number of entries that have been flushed from TLB (Count)
system.cpu.mmu.itb.instAccesses                     0                       # Inst accesses (Count)
system.cpu.mmu.itb.hits                             0                       # Total TLB (inst and data) hits (Count)
system.cpu.mmu.itb.misses                           0                       # Total TLB (inst and data) misses (Count)
system.cpu.mmu.itb.accesses                         0                       # Total TLB (inst and data) accesses (Count)
system.cpu.mmu.itb_walker.walks                     0                       # Table walker walks requested (Count)
system.cpu.mmu.itb_walker.requestOrigin_Requested::Data            0                       # Table walker requests started/completed, data/inst (Count)
system.cpu.mmu.itb_walker.requestOrigin_Requested::Inst            0                       # Table walker requests started/completed, data/inst (Count)
system.cpu.mmu.itb_walker.requestOrigin_Requested::total            0                       # Table walker requests started/completed, data/inst (Count)
system.cpu.mmu.itb_walker.requestOrigin_Completed::Data            0                       # Table walker requests started/completed, data/inst (Count)
system.cpu.mmu.itb_walker.requestOrigin_Completed::Inst            0                       # Table walker requests started/completed, data/inst (Count)
system.cpu.mmu.itb_walker.requestOrigin_Completed::total            0                       # Table walker requests started/completed, data/inst (Count)
system.cpu.mmu.itb_walker.requestOrigin::total            0                       # Table walker requests started/completed, data/inst (Count)
system.cpu.mmu.itb_walker.power_state.pwrStateResidencyTicks::UNDEFINED 1566988784512                       # Cumulative time (in ticks) in various power states (Tick)
system.cpu.mmu.l2_shared.instHits                   0                       # Inst hits (Count)
system.cpu.mmu.l2_shared.instMisses                 0                       # Inst misses (Count)
system.cpu.mmu.l2_shared.inserts                    0                       # Number of times an entry is inserted into the TLB (Count)
system.cpu.mmu.l2_shared.flushTlb                   0                       # Number of times complete TLB was flushed (Count)
system.cpu.mmu.l2_shared.flushTlbMva                0                       # Number of times TLB was flushed by MVA (Count)
system.cpu.mmu.l2_shared.flushTlbMvaAsid            0                       # Number of times TLB was flushed by MVA & ASID (Count)
system.cpu.mmu.l2_shared.flushTlbAsid               0                       # Number of times TLB was flushed by ASID (Count)
system.cpu.mmu.l2_shared.flushedEntries             0                       # Number of entries that have been flushed from TLB (Count)
system.cpu.mmu.l2_shared.instAccesses               0                       # Inst accesses (Count)
system.cpu.mmu.l2_shared.hits                       0                       # Total TLB (inst and data) hits (Count)
system.cpu.mmu.l2_shared.misses                     0                       # Total TLB (inst and data) misses (Count)
system.cpu.mmu.l2_shared.accesses                   0                       # Total TLB (inst and data) accesses (Count)
system.cpu.mmu.stage2_dtb.readHits                  0                       # Read hits (Count)
system.cpu.mmu.stage2_dtb.readMisses                0                       # Read misses (Count)
system.cpu.mmu.stage2_dtb.writeHits                 0                       # Write hits (Count)
system.cpu.mmu.stage2_dtb.writeMisses               0                       # Write misses (Count)
system.cpu.mmu.stage2_dtb.inserts                   0                       # Number of times an entry is inserted into the TLB (Count)
system.cpu.mmu.stage2_dtb.flushTlb                  0                       # Number of times complete TLB was flushed (Count)
system.cpu.mmu.stage2_dtb.flushTlbMva               0                       # Number of times TLB was flushed by MVA (Count)
system.cpu.mmu.stage2_dtb.flushTlbMvaAsid            0                       # Number of times TLB was flushed by MVA & ASID (Count)
system.cpu.mmu.stage2_dtb.flushTlbAsid              0                       # Number of times TLB was flushed by ASID (Count)
system.cpu.mmu.stage2_dtb.flushedEntries            0                       # Number of entries that have been flushed from TLB (Count)
system.cpu.mmu.stage2_dtb.readAccesses              0                       # Read accesses (Count)
system.cpu.mmu.stage2_dtb.writeAccesses             0                       # Write accesses (Count)
system.cpu.mmu.stage2_dtb.hits                      0                       # Total TLB (inst and data) hits (Count)
system.cpu.mmu.stage2_dtb.misses                    0                       # Total TLB (inst and data) misses (Count)
system.cpu.mmu.stage2_dtb.accesses                  0                       # Total TLB (inst and data) accesses (Count)
system.cpu.mmu.stage2_dtb_walker.walks              0                       # Table walker walks requested (Count)
system.cpu.mmu.stage2_dtb_walker.requestOrigin_Requested::Data            0                       # Table walker requests started/completed, data/inst (Count)
system.cpu.mmu.stage2_dtb_walker.requestOrigin_Requested::Inst            0                       # Table walker requests started/completed, data/inst (Count)
system.cpu.mmu.stage2_dtb_walker.requestOrigin_Requested::total            0                       # Table walker requests started/completed, data/inst (Count)
system.cpu.mmu.stage2_dtb_walker.requestOrigin_Completed::Data            0                       # Table walker requests started/completed, data/inst (Count)
system.cpu.mmu.stage2_dtb_walker.requestOrigin_Completed::Inst            0                       # Table walker requests started/completed, data/inst (Count)
system.cpu.mmu.stage2_dtb_walker.requestOrigin_Completed::total            0                       # Table walker requests started/completed, data/inst (Count)
system.cpu.mmu.stage2_dtb_walker.requestOrigin::total            0                       # Table walker requests started/completed, data/inst (Count)
system.cpu.mmu.stage2_dtb_walker.power_state.pwrStateResidencyTicks::UNDEFINED 1566988784512                       # Cumulative time (in ticks) in various power states (Tick)
system.cpu.mmu.stage2_itb.instHits                  0                       # Inst hits (Count)
system.cpu.mmu.stage2_itb.instMisses                0                       # Inst misses (Count)
system.cpu.mmu.stage2_itb.inserts                   0                       # Number of times an entry is inserted into the TLB (Count)
system.cpu.mmu.stage2_itb.flushTlb                  0                       # Number of times complete TLB was flushed (Count)
system.cpu.mmu.stage2_itb.flushTlbMva               0                       # Number of times TLB was flushed by MVA (Count)
system.cpu.mmu.stage2_itb.flushTlbMvaAsid            0                       # Number of times TLB was flushed by MVA & ASID (Count)
system.cpu.mmu.stage2_itb.flushTlbAsid              0                       # Number of times TLB was flushed by ASID (Count)
system.cpu.mmu.stage2_itb.flushedEntries            0                       # Number of entries that have been flushed from TLB (Count)
system.cpu.mmu.stage2_itb.instAccesses              0                       # Inst accesses (Count)
system.cpu.mmu.stage2_itb.hits                      0                       # Total TLB (inst and data) hits (Count)
system.cpu.mmu.stage2_itb.misses                    0                       # Total TLB (inst and data) misses (Count)
system.cpu.mmu.stage2_itb.accesses                  0                       # Total TLB (inst and data) accesses (Count)
system.cpu.mmu.stage2_itb_walker.walks              0                       # Table walker walks requested (Count)
system.cpu.mmu.stage2_itb_walker.requestOrigin_Requested::Data            0                       # Table walker requests started/completed, data/inst (Count)
system.cpu.mmu.stage2_itb_walker.requestOrigin_Requested::Inst            0                       # Table walker requests started/completed, data/inst (Count)
system.cpu.mmu.stage2_itb_walker.requestOrigin_Requested::total            0                       # Table walker requests started/completed, data/inst (Count)
system.cpu.mmu.stage2_itb_walker.requestOrigin_Completed::Data            0                       # Table walker requests started/completed, data/inst (Count)
system.cpu.mmu.stage2_itb_walker.requestOrigin_Completed::Inst            0                       # Table walker requests started/completed, data/inst (Count)
system.cpu.mmu.stage2_itb_walker.requestOrigin_Completed::total            0                       # Table walker requests started/completed, data/inst (Count)
system.cpu.mmu.stage2_itb_walker.requestOrigin::total            0                       # Table walker requests started/completed, data/inst (Count)
system.cpu.mmu.stage2_itb_walker.power_state.pwrStateResidencyTicks::UNDEFINED 1566988784512                       # Cumulative time (in ticks) in various power states (Tick)
system.cpu.power_state.pwrStateResidencyTicks::ON 1566988784512                       # Cumulative time (in ticks) in various power states (Tick)
system.cpu.thread_0.numInsts                        0                       # Number of Instructions committed (Count)
system.cpu.thread_0.numOps                          0                       # Number of Ops committed (Count)
system.cpu.thread_0.numMemRefs                      0                       # Number of Memory References (Count)
system.cpu.workload.numSyscalls                    13                       # Number of system calls (Count)
system.cpu_clk_domain.clock                       556                       # Clock period in ticks (Tick)
system.cpu_clk_domain.voltage_domain.voltage            1                       # Voltage in Volts (Volt)
system.l2bus.transDist::ReadResp              1519082                       # Transaction distribution (Count)
system.l2bus.transDist::WritebackDirty        1048836                       # Transaction distribution (Count)
system.l2bus.transDist::CleanEvict            3004795                       # Transaction distribution (Count)
system.l2bus.transDist::ReadExReq              524531                       # Transaction distribution (Count)
system.l2bus.transDist::ReadExResp             524531                       # Transaction distribution (Count)
system.l2bus.transDist::ReadSharedReq         1519082                       # Transaction distribution (Count)
system.l2bus.pktCount_system.cpu.icache.mem_side_port::system.l2cache.cpu_side_port          531                       # Packet count per connected requestor and responder (Count)
system.l2bus.pktCount_system.cpu.dcache.mem_side_port::system.l2cache.cpu_side_port      6129535                       # Packet count per connected requestor and responder (Count)
system.l2bus.pktCount::total                  6130066                       # Packet count per connected requestor and responder (Count)
system.l2bus.pktSize_system.cpu.icache.mem_side_port::system.l2cache.cpu_side_port        16896                       # Cumulative packet size per connected requestor and responder (Byte)
system.l2bus.pktSize_system.cpu.dcache.mem_side_port::system.l2cache.cpu_side_port    164337152                       # Cumulative packet size per connected requestor and responder (Byte)
system.l2bus.pktSize::total                 164354048                       # Cumulative packet size per connected requestor and responder (Byte)
system.l2bus.snoops                           2010791                       # Total snoops (Count)
system.l2bus.snoopTraffic                    33562688                       # Total snoop traffic (Byte)
system.l2bus.snoopFanout::samples             4054404                       # Request fanout histogram (Count)
system.l2bus.snoopFanout::mean               0.000116                       # Request fanout histogram (Count)
system.l2bus.snoopFanout::stdev              0.010778                       # Request fanout histogram (Count)
system.l2bus.snoopFanout::underflows                0      0.00%      0.00% # Request fanout histogram (Count)
system.l2bus.snoopFanout::0                   4053933     99.99%     99.99% # Request fanout histogram (Count)
system.l2bus.snoopFanout::1                       471      0.01%    100.00% # Request fanout histogram (Count)
system.l2bus.snoopFanout::2                         0      0.00%    100.00% # Request fanout histogram (Count)
system.l2bus.snoopFanout::overflows                 0      0.00%    100.00% # Request fanout histogram (Count)
system.l2bus.snoopFanout::min_value                 0                       # Request fanout histogram (Count)
system.l2bus.snoopFanout::max_value                 1                       # Request fanout histogram (Count)
system.l2bus.snoopFanout::total               4054404                       # Request fanout histogram (Count)
system.l2bus.power_state.pwrStateResidencyTicks::UNDEFINED 1566988784512                       # Cumulative time (in ticks) in various power states (Tick)
system.l2bus.reqLayer0.occupancy           3620655652                       # Layer occupancy (ticks) (Tick)
system.l2bus.reqLayer0.utilization                0.0                       # Layer utilization (Ratio)
system.l2bus.respLayer0.occupancy              396000                       # Layer occupancy (ticks) (Tick)
system.l2bus.respLayer0.utilization               0.0                       # Layer utilization (Ratio)
system.l2bus.respLayer1.occupancy          3065023500                       # Layer occupancy (ticks) (Tick)
system.l2bus.respLayer1.utilization               0.0                       # Layer utilization (Ratio)
system.l2bus.snoop_filter.totRequests         4086453                       # Total number of requests made to the snoop filter. (Count)
system.l2bus.snoop_filter.hitSingleRequests      2042840                       # Number of requests hitting in the snoop filter with a single holder of the requested data. (Count)
system.l2bus.snoop_filter.hitMultiRequests           22                       # Number of requests hitting in the snoop filter with multiple (>1) holders of the requested data. (Count)
system.l2bus.snoop_filter.totSnoops               449                       # Total number of snoops made to the snoop filter. (Count)
system.l2bus.snoop_filter.hitSingleSnoops          449                       # Number of snoops hitting in the snoop filter with a single holder of the requested data. (Count)
system.l2bus.snoop_filter.hitMultiSnoops            0                       # Number of snoops hitting in the snoop filter with multiple (>1) holders of the requested data. (Count)
system.l2cache.demandHits::cpu.inst                16                       # number of demand (read+write) hits (Count)
system.l2cache.demandHits::cpu.data                98                       # number of demand (read+write) hits (Count)
system.l2cache.demandHits::total                  114                       # number of demand (read+write) hits (Count)
system.l2cache.overallHits::cpu.inst               16                       # number of overall hits (Count)
system.l2cache.overallHits::cpu.data               98                       # number of overall hits (Count)
system.l2cache.overallHits::total                 114                       # number of overall hits (Count)
system.l2cache.demandMisses::cpu.inst             248                       # number of demand (read+write) misses (Count)
system.l2cache.demandMisses::cpu.data         2043251                       # number of demand (read+write) misses (Count)
system.l2cache.demandMisses::total            2043499                       # number of demand (read+write) misses (Count)
system.l2cache.overallMisses::cpu.inst            248                       # number of overall misses (Count)
system.l2cache.overallMisses::cpu.data        2043251                       # number of overall misses (Count)
system.l2cache.overallMisses::total           2043499                       # number of overall misses (Count)
system.l2cache.demandMissLatency::cpu.inst     20768028                       # number of demand (read+write) miss ticks (Tick)
system.l2cache.demandMissLatency::cpu.data 203367365260                       # number of demand (read+write) miss ticks (Tick)
system.l2cache.demandMissLatency::total  203388133288                       # number of demand (read+write) miss ticks (Tick)
system.l2cache.overallMissLatency::cpu.inst     20768028                       # number of overall miss ticks (Tick)
system.l2cache.overallMissLatency::cpu.data 203367365260                       # number of overall miss ticks (Tick)
system.l2cache.overallMissLatency::total 203388133288                       # number of overall miss ticks (Tick)
system.l2cache.demandAccesses::cpu.inst           264                       # number of demand (read+write) accesses (Count)
system.l2cache.demandAccesses::cpu.data       2043349                       # number of demand (read+write) accesses (Count)
system.l2cache.demandAccesses::total          2043613                       # number of demand (read+write) accesses (Count)
system.l2cache.overallAccesses::cpu.inst          264                       # number of overall (read+write) accesses (Count)
system.l2cache.overallAccesses::cpu.data      2043349                       # number of overall (read+write) accesses (Count)
system.l2cache.overallAccesses::total         2043613                       # number of overall (read+write) accesses (Count)
system.l2cache.demandMissRate::cpu.inst      0.939394                       # miss rate for demand accesses (Ratio)
system.l2cache.demandMissRate::cpu.data      0.999952                       # miss rate for demand accesses (Ratio)
system.l2cache.demandMissRate::total         0.999944                       # miss rate for demand accesses (Ratio)
system.l2cache.overallMissRate::cpu.inst     0.939394                       # miss rate for overall accesses (Ratio)
system.l2cache.overallMissRate::cpu.data     0.999952                       # miss rate for overall accesses (Ratio)
system.l2cache.overallMissRate::total        0.999944                       # miss rate for overall accesses (Ratio)
system.l2cache.demandAvgMissLatency::cpu.inst 83742.048387                       # average overall miss latency in ticks ((Tick/Count))
system.l2cache.demandAvgMissLatency::cpu.data 99531.269169                       # average overall miss latency in ticks ((Tick/Count))
system.l2cache.demandAvgMissLatency::total 99529.352981                       # average overall miss latency in ticks ((Tick/Count))
system.l2cache.overallAvgMissLatency::cpu.inst 83742.048387                       # average overall miss latency ((Tick/Count))
system.l2cache.overallAvgMissLatency::cpu.data 99531.269169                       # average overall miss latency ((Tick/Count))
system.l2cache.overallAvgMissLatency::total 99529.352981                       # average overall miss latency ((Tick/Count))
system.l2cache.blockedCycles::no_mshrs              0                       # number of cycles access was blocked (Cycle)
system.l2cache.blockedCycles::no_targets            0                       # number of cycles access was blocked (Cycle)
system.l2cache.blockedCauses::no_mshrs              0                       # number of times access was blocked (Count)
system.l2cache.blockedCauses::no_targets            0                       # number of times access was blocked (Count)
system.l2cache.avgBlocked::no_mshrs               nan                       # average number of cycles each access was blocked ((Cycle/Count))
system.l2cache.avgBlocked::no_targets             nan                       # average number of cycles each access was blocked ((Cycle/Count))
system.l2cache.writebacks::writebacks          524417                       # number of writebacks (Count)
system.l2cache.writebacks::total               524417                       # number of writebacks (Count)
system.l2cache.demandMshrMisses::cpu.inst          248                       # number of demand (read+write) MSHR misses (Count)
system.l2cache.demandMshrMisses::cpu.data      2043251                       # number of demand (read+write) MSHR misses (Count)
system.l2cache.demandMshrMisses::total        2043499                       # number of demand (read+write) MSHR misses (Count)
system.l2cache.overallMshrMisses::cpu.inst          248                       # number of overall MSHR misses (Count)
system.l2cache.overallMshrMisses::cpu.data      2043251                       # number of overall MSHR misses (Count)
system.l2cache.overallMshrMisses::total       2043499                       # number of overall MSHR misses (Count)
system.l2cache.demandMshrMissLatency::cpu.inst     18288028                       # number of demand (read+write) MSHR miss ticks (Tick)
system.l2cache.demandMshrMissLatency::cpu.data 182934855260                       # number of demand (read+write) MSHR miss ticks (Tick)
system.l2cache.demandMshrMissLatency::total 182953143288                       # number of demand (read+write) MSHR miss ticks (Tick)
system.l2cache.overallMshrMissLatency::cpu.inst     18288028                       # number of overall MSHR miss ticks (Tick)
system.l2cache.overallMshrMissLatency::cpu.data 182934855260                       # number of overall MSHR miss ticks (Tick)
system.l2cache.overallMshrMissLatency::total 182953143288                       # number of overall MSHR miss ticks (Tick)
system.l2cache.demandMshrMissRate::cpu.inst     0.939394                       # mshr miss ratio for demand accesses (Ratio)
system.l2cache.demandMshrMissRate::cpu.data     0.999952                       # mshr miss ratio for demand accesses (Ratio)
system.l2cache.demandMshrMissRate::total     0.999944                       # mshr miss ratio for demand accesses (Ratio)
system.l2cache.overallMshrMissRate::cpu.inst     0.939394                       # mshr miss ratio for overall accesses (Ratio)
system.l2cache.overallMshrMissRate::cpu.data     0.999952                       # mshr miss ratio for overall accesses (Ratio)
system.l2cache.overallMshrMissRate::total     0.999944                       # mshr miss ratio for overall accesses (Ratio)
system.l2cache.demandAvgMshrMissLatency::cpu.inst 73742.048387                       # average overall mshr miss latency ((Tick/Count))
system.l2cache.demandAvgMshrMissLatency::cpu.data 89531.269169                       # average overall mshr miss latency ((Tick/Count))
system.l2cache.demandAvgMshrMissLatency::total 89529.352981                       # average overall mshr miss latency ((Tick/Count))
system.l2cache.overallAvgMshrMissLatency::cpu.inst 73742.048387                       # average overall mshr miss latency ((Tick/Count))
system.l2cache.overallAvgMshrMissLatency::cpu.data 89531.269169                       # average overall mshr miss latency ((Tick/Count))
system.l2cache.overallAvgMshrMissLatency::total 89529.352981                       # average overall mshr miss latency ((Tick/Count))
system.l2cache.replacements                   2010791                       # number of replacements (Count)
system.l2cache.ReadExReq.misses::cpu.data       524531                       # number of ReadExReq misses (Count)
system.l2cache.ReadExReq.misses::total         524531                       # number of ReadExReq misses (Count)
system.l2cache.ReadExReq.missLatency::cpu.data  45179279668                       # number of ReadExReq miss ticks (Tick)
system.l2cache.ReadExReq.missLatency::total  45179279668                       # number of ReadExReq miss ticks (Tick)
system.l2cache.ReadExReq.accesses::cpu.data       524531                       # number of ReadExReq accesses(hits+misses) (Count)
system.l2cache.ReadExReq.accesses::total       524531                       # number of ReadExReq accesses(hits+misses) (Count)
system.l2cache.ReadExReq.missRate::cpu.data            1                       # miss rate for ReadExReq accesses (Ratio)
system.l2cache.ReadExReq.missRate::total            1                       # miss rate for ReadExReq accesses (Ratio)
system.l2cache.ReadExReq.avgMissLatency::cpu.data 86132.716023                       # average ReadExReq miss latency ((Tick/Count))
system.l2cache.ReadExReq.avgMissLatency::total 86132.716023                       # average ReadExReq miss latency ((Tick/Count))
system.l2cache.ReadExReq.mshrMisses::cpu.data       524531                       # number of ReadExReq MSHR misses (Count)
system.l2cache.ReadExReq.mshrMisses::total       524531                       # number of ReadExReq MSHR misses (Count)
system.l2cache.ReadExReq.mshrMissLatency::cpu.data  39933969668                       # number of ReadExReq MSHR miss ticks (Tick)
system.l2cache.ReadExReq.mshrMissLatency::total  39933969668                       # number of ReadExReq MSHR miss ticks (Tick)
system.l2cache.ReadExReq.mshrMissRate::cpu.data            1                       # mshr miss rate for ReadExReq accesses (Ratio)
system.l2cache.ReadExReq.mshrMissRate::total            1                       # mshr miss rate for ReadExReq accesses (Ratio)
system.l2cache.ReadExReq.avgMshrMissLatency::cpu.data 76132.716023                       # average ReadExReq mshr miss latency ((Tick/Count))
system.l2cache.ReadExReq.avgMshrMissLatency::total 76132.716023                       # average ReadExReq mshr miss latency ((Tick/Count))
system.l2cache.ReadSharedReq.hits::cpu.inst           16                       # number of ReadSharedReq hits (Count)
system.l2cache.ReadSharedReq.hits::cpu.data           98                       # number of ReadSharedReq hits (Count)
system.l2cache.ReadSharedReq.hits::total          114                       # number of ReadSharedReq hits (Count)
system.l2cache.ReadSharedReq.misses::cpu.inst          248                       # number of ReadSharedReq misses (Count)
system.l2cache.ReadSharedReq.misses::cpu.data      1518720                       # number of ReadSharedReq misses (Count)
system.l2cache.ReadSharedReq.misses::total      1518968                       # number of ReadSharedReq misses (Count)
system.l2cache.ReadSharedReq.missLatency::cpu.inst     20768028                       # number of ReadSharedReq miss ticks (Tick)
system.l2cache.ReadSharedReq.missLatency::cpu.data 158188085592                       # number of ReadSharedReq miss ticks (Tick)
system.l2cache.ReadSharedReq.missLatency::total 158208853620                       # number of ReadSharedReq miss ticks (Tick)
system.l2cache.ReadSharedReq.accesses::cpu.inst          264                       # number of ReadSharedReq accesses(hits+misses) (Count)
system.l2cache.ReadSharedReq.accesses::cpu.data      1518818                       # number of ReadSharedReq accesses(hits+misses) (Count)
system.l2cache.ReadSharedReq.accesses::total      1519082                       # number of ReadSharedReq accesses(hits+misses) (Count)
system.l2cache.ReadSharedReq.missRate::cpu.inst     0.939394                       # miss rate for ReadSharedReq accesses (Ratio)
system.l2cache.ReadSharedReq.missRate::cpu.data     0.999935                       # miss rate for ReadSharedReq accesses (Ratio)
system.l2cache.ReadSharedReq.missRate::total     0.999925                       # miss rate for ReadSharedReq accesses (Ratio)
system.l2cache.ReadSharedReq.avgMissLatency::cpu.inst 83742.048387                       # average ReadSharedReq miss latency ((Tick/Count))
system.l2cache.ReadSharedReq.avgMissLatency::cpu.data 104158.821634                       # average ReadSharedReq miss latency ((Tick/Count))
system.l2cache.ReadSharedReq.avgMissLatency::total 104155.488213                       # average ReadSharedReq miss latency ((Tick/Count))
system.l2cache.ReadSharedReq.mshrMisses::cpu.inst          248                       # number of ReadSharedReq MSHR misses (Count)
system.l2cache.ReadSharedReq.mshrMisses::cpu.data      1518720                       # number of ReadSharedReq MSHR misses (Count)
system.l2cache.ReadSharedReq.mshrMisses::total      1518968                       # number of ReadSharedReq MSHR misses (Count)
system.l2cache.ReadSharedReq.mshrMissLatency::cpu.inst     18288028                       # number of ReadSharedReq MSHR miss ticks (Tick)
system.l2cache.ReadSharedReq.mshrMissLatency::cpu.data 143000885592                       # number of ReadSharedReq MSHR miss ticks (Tick)
system.l2cache.ReadSharedReq.mshrMissLatency::total 143019173620                       # number of ReadSharedReq MSHR miss ticks (Tick)
system.l2cache.ReadSharedReq.mshrMissRate::cpu.inst     0.939394                       # mshr miss rate for ReadSharedReq accesses (Ratio)
system.l2cache.ReadSharedReq.mshrMissRate::cpu.data     0.999935                       # mshr miss rate for ReadSharedReq accesses (Ratio)
system.l2cache.ReadSharedReq.mshrMissRate::total     0.999925                       # mshr miss rate for ReadSharedReq accesses (Ratio)
system.l2cache.ReadSharedReq.avgMshrMissLatency::cpu.inst 73742.048387                       # average ReadSharedReq mshr miss latency ((Tick/Count))
system.l2cache.ReadSharedReq.avgMshrMissLatency::cpu.data 94158.821634                       # average ReadSharedReq mshr miss latency ((Tick/Count))
system.l2cache.ReadSharedReq.avgMshrMissLatency::total 94155.488213                       # average ReadSharedReq mshr miss latency ((Tick/Count))
system.l2cache.WritebackDirty.hits::writebacks       524419                       # number of WritebackDirty hits (Count)
system.l2cache.WritebackDirty.hits::total       524419                       # number of WritebackDirty hits (Count)
system.l2cache.WritebackDirty.accesses::writebacks       524419                       # number of WritebackDirty accesses(hits+misses) (Count)
system.l2cache.WritebackDirty.accesses::total       524419                       # number of WritebackDirty accesses(hits+misses) (Count)
system.l2cache.power_state.pwrStateResidencyTicks::UNDEFINED 1566988784512                       # Cumulative time (in ticks) in various power states (Tick)
system.l2cache.tags.tagsInUse            32075.895364                       # Average ticks per tags in use ((Tick/Count))
system.l2cache.tags.totalRefs                 4086431                       # Total number of references to valid blocks. (Count)
system.l2cache.tags.sampledRefs               2043559                       # Sample count of references to valid blocks. (Count)
system.l2cache.tags.avgRefs                  1.999664                       # Average number of references to valid blocks. ((Count/Count))
system.l2cache.tags.warmupTick                  86500                       # The tick when the warmup percentage was hit. (Tick)
system.l2cache.tags.occupancies::writebacks     0.223878                       # Average occupied blocks per tick, per requestor ((Count/Tick))
system.l2cache.tags.occupancies::cpu.inst    10.161476                       # Average occupied blocks per tick, per requestor ((Count/Tick))
system.l2cache.tags.occupancies::cpu.data 32065.510010                       # Average occupied blocks per tick, per requestor ((Count/Tick))
system.l2cache.tags.avgOccs::writebacks      0.000007                       # Average percentage of cache occupancy ((Ratio/Tick))
system.l2cache.tags.avgOccs::cpu.inst        0.000310                       # Average percentage of cache occupancy ((Ratio/Tick))
system.l2cache.tags.avgOccs::cpu.data        0.978562                       # Average percentage of cache occupancy ((Ratio/Tick))
system.l2cache.tags.avgOccs::total           0.978879                       # Average percentage of cache occupancy ((Ratio/Tick))
system.l2cache.tags.occupanciesTaskId::1024        32768                       # Occupied blocks per task id (Count)
system.l2cache.tags.ageTaskId_1024::0              27                       # Occupied blocks per task id, per block age (Count)
system.l2cache.tags.ageTaskId_1024::1             228                       # Occupied blocks per task id, per block age (Count)
system.l2cache.tags.ageTaskId_1024::2               1                       # Occupied blocks per task id, per block age (Count)
system.l2cache.tags.ageTaskId_1024::3             768                       # Occupied blocks per task id, per block age (Count)
system.l2cache.tags.ageTaskId_1024::4           31744                       # Occupied blocks per task id, per block age (Count)
system.l2cache.tags.ratioOccsTaskId::1024            1                       # Ratio of occupied blocks and all blocks, per task id (Ratio)
system.l2cache.tags.tagAccesses              34735007                       # Number of tag accesses (Count)
system.l2cache.tags.dataAccesses             34735007                       # Number of data accesses (Count)
system.l2cache.tags.power_state.pwrStateResidencyTicks::UNDEFINED 1566988784512                       # Cumulative time (in ticks) in various power states (Tick)
system.mem_ctrl.avgPriority_writebacks::samples   1048834.00                       # Average QoS priority value for accepted requests (Count)
system.mem_ctrl.avgPriority_cpu.inst::samples       496.00                       # Average QoS priority value for accepted requests (Count)
system.mem_ctrl.avgPriority_cpu.data::samples   4086502.00                       # Average QoS priority value for accepted requests (Count)
system.mem_ctrl.priorityMinLatency       0.000000020000                       # per QoS priority minimum request to response latency (Second)
system.mem_ctrl.priorityMaxLatency       0.161551840000                       # per QoS priority maximum request to response latency (Second)
system.mem_ctrl.numReadWriteTurnArounds         58291                       # Number of turnarounds from READ to WRITE (Count)
system.mem_ctrl.numWriteReadTurnArounds         58291                       # Number of turnarounds from WRITE to READ (Count)
system.mem_ctrl.numStayReadState              7056705                       # Number of times bus staying in READ state (Count)
system.mem_ctrl.numStayWriteState              992162                       # Number of times bus staying in WRITE state (Count)
system.mem_ctrl.readReqs                      2043499                       # Number of read requests accepted (Count)
system.mem_ctrl.writeReqs                      524417                       # Number of write requests accepted (Count)
system.mem_ctrl.readBursts                    4086998                       # Number of controller read bursts, including those serviced by the write queue (Count)
system.mem_ctrl.writeBursts                   1048834                       # Number of controller write bursts, including those merged in the write queue (Count)
system.mem_ctrl.servicedByWrQ                       0                       # Number of controller read bursts serviced by the write queue (Count)
system.mem_ctrl.mergedWrBursts                      0                       # Number of controller write bursts merged with an existing one (Count)
system.mem_ctrl.neitherReadNorWriteReqs             0                       # Number of requests that are neither read nor write (Count)
system.mem_ctrl.avgRdQLen                        2.00                       # Average read queue length when enqueuing ((Count/Tick))
system.mem_ctrl.avgWrQLen                       23.86                       # Average write queue length when enqueuing ((Count/Tick))
system.mem_ctrl.numRdRetry                          0                       # Number of times read queue was full causing retry (Count)
system.mem_ctrl.numWrRetry                          0                       # Number of times write queue was full causing retry (Count)
system.mem_ctrl.readPktSize::0                      0                       # Read request sizes (log2) (Count)
system.mem_ctrl.readPktSize::1                      0                       # Read request sizes (log2) (Count)
system.mem_ctrl.readPktSize::2                      0                       # Read request sizes (log2) (Count)
system.mem_ctrl.readPktSize::3                      0                       # Read request sizes (log2) (Count)
system.mem_ctrl.readPktSize::4                      0                       # Read request sizes (log2) (Count)
system.mem_ctrl.readPktSize::5                4086998                       # Read request sizes (log2) (Count)
system.mem_ctrl.readPktSize::6                      0                       # Read request sizes (log2) (Count)
system.mem_ctrl.writePktSize::0                     0                       # Write request sizes (log2) (Count)
[...]
system.mem_ctrl.wrPerTurnAround::18             58006     99.51%     99.94% # Writes before turning the bus around for reads (Count)
system.mem_ctrl.wrPerTurnAround::19                35      0.06%    100.00% # Writes before turning the bus around for reads (Count)
system.mem_ctrl.wrPerTurnAround::20                 1      0.00%    100.00% # Writes before turning the bus around for reads (Count)
system.mem_ctrl.wrPerTurnAround::total          58291                       # Writes before turning the bus around for reads (Count)
system.mem_ctrl.bytesReadWrQ                        0                       # Total number of bytes read from write queue (Byte)
system.mem_ctrl.bytesReadSys                130783936                       # Total read bytes from the system interface side (Byte)
system.mem_ctrl.bytesWrittenSys              33562688                       # Total written bytes from the system interface side (Byte)
system.mem_ctrl.avgRdBWSys               83461947.71312892                       # Average system read bandwidth in Byte/s ((Byte/Second))
system.mem_ctrl.avgWrBWSys               21418588.52579616                       # Average system write bandwidth in Byte/s ((Byte/Second))
system.mem_ctrl.totGap                   1566988592752                       # Total gap between requests (Tick)
system.mem_ctrl.avgGap                      610218.01                       # Average gap between requests ((Tick/Count))
system.mem_ctrl.requestorReadBytes::cpu.inst        15872                       # Per-requestor bytes read from memory (Byte)
system.mem_ctrl.requestorReadBytes::cpu.data    130768064                       # Per-requestor bytes read from memory (Byte)
system.mem_ctrl.requestorWriteBytes::writebacks     33561952                       # Per-requestor bytes write to memory (Byte)
system.mem_ctrl.requestorReadRate::cpu.inst 10128.981238970988                       # Per-requestor bytes read from memory rate ((Byte/Second))
system.mem_ctrl.requestorReadRate::cpu.data 83451818.731889948249                       # Per-requestor bytes read from memory rate ((Byte/Second))
system.mem_ctrl.requestorWriteRate::writebacks 21418118.835133872926                       # Per-requestor bytes write to memory rate ((Byte/Second))
system.mem_ctrl.requestorReadAccesses::cpu.inst          496                       # Per-requestor read serviced memory accesses (Count)
system.mem_ctrl.requestorReadAccesses::cpu.data      4086502                       # Per-requestor read serviced memory accesses (Count)
system.mem_ctrl.requestorWriteAccesses::writebacks      1048834                       # Per-requestor write serviced memory accesses (Count)
system.mem_ctrl.requestorReadTotalLat::cpu.inst     17164200                       # Per-requestor read total memory access latency (Tick)
system.mem_ctrl.requestorReadTotalLat::cpu.data 206679483464                       # Per-requestor read total memory access latency (Tick)
system.mem_ctrl.requestorWriteTotalLat::writebacks 34120556854452                       # Per-requestor write total memory access latency (Tick)
system.mem_ctrl.requestorReadAvgLat::cpu.inst     34605.24                       # Per-requestor read average memory access latency ((Tick/Count))
system.mem_ctrl.requestorReadAvgLat::cpu.data     50576.14                       # Per-requestor read average memory access latency ((Tick/Count))
system.mem_ctrl.requestorWriteAvgLat::writebacks  32531894.33                       # Per-requestor write average memory access latency ((Tick/Count))
system.mem_ctrl.dram.bytesRead::cpu.inst        15872                       # Number of bytes read from this memory (Byte)
system.mem_ctrl.dram.bytesRead::cpu.data    130768064                       # Number of bytes read from this memory (Byte)
system.mem_ctrl.dram.bytesRead::total       130783936                       # Number of bytes read from this memory (Byte)
system.mem_ctrl.dram.bytesInstRead::cpu.inst        15872                       # Number of instructions bytes read from this memory (Byte)
system.mem_ctrl.dram.bytesInstRead::total        15872                       # Number of instructions bytes read from this memory (Byte)
system.mem_ctrl.dram.bytesWritten::writebacks     33562688                       # Number of bytes written to this memory (Byte)
system.mem_ctrl.dram.bytesWritten::total     33562688                       # Number of bytes written to this memory (Byte)
system.mem_ctrl.dram.numReads::cpu.inst           248                       # Number of read requests responded to by this memory (Count)
system.mem_ctrl.dram.numReads::cpu.data       2043251                       # Number of read requests responded to by this memory (Count)
system.mem_ctrl.dram.numReads::total          2043499                       # Number of read requests responded to by this memory (Count)
system.mem_ctrl.dram.numWrites::writebacks       524417                       # Number of write requests responded to by this memory (Count)
system.mem_ctrl.dram.numWrites::total          524417                       # Number of write requests responded to by this memory (Count)
system.mem_ctrl.dram.bwRead::cpu.inst           10129                       # Total read bandwidth from this memory ((Byte/Second))
system.mem_ctrl.dram.bwRead::cpu.data        83451819                       # Total read bandwidth from this memory ((Byte/Second))
system.mem_ctrl.dram.bwRead::total           83461948                       # Total read bandwidth from this memory ((Byte/Second))
system.mem_ctrl.dram.bwInstRead::cpu.inst        10129                       # Instruction read bandwidth from this memory ((Byte/Second))
system.mem_ctrl.dram.bwInstRead::total          10129                       # Instruction read bandwidth from this memory ((Byte/Second))
system.mem_ctrl.dram.bwWrite::writebacks     21418589                       # Write bandwidth from this memory ((Byte/Second))
system.mem_ctrl.dram.bwWrite::total          21418589                       # Write bandwidth from this memory ((Byte/Second))
system.mem_ctrl.dram.bwTotal::writebacks     21418589                       # Total bandwidth to/from this memory ((Byte/Second))
system.mem_ctrl.dram.bwTotal::cpu.inst          10129                       # Total bandwidth to/from this memory ((Byte/Second))
system.mem_ctrl.dram.bwTotal::cpu.data       83451819                       # Total bandwidth to/from this memory ((Byte/Second))
system.mem_ctrl.dram.bwTotal::total         104880536                       # Total bandwidth to/from this memory ((Byte/Second))
system.mem_ctrl.dram.readBursts               4086998                       # Number of DRAM read bursts (Count)
system.mem_ctrl.dram.writeBursts              1048811                       # Number of DRAM write bursts (Count)
system.mem_ctrl.dram.perBankRdBursts::0        394642                       # Per bank write bursts (Count)
system.mem_ctrl.dram.perBankRdBursts::1        628670                       # Per bank write bursts (Count)
system.mem_ctrl.dram.perBankRdBursts::2        393506                       # Per bank write bursts (Count)
system.mem_ctrl.dram.perBankRdBursts::3        627600                       # Per bank write bursts (Count)
system.mem_ctrl.dram.perBankRdBursts::4        394646                       # Per bank write bursts (Count)
system.mem_ctrl.dram.perBankRdBursts::5        629420                       # Per bank write bursts (Count)
system.mem_ctrl.dram.perBankRdBursts::6        393440                       # Per bank write bursts (Count)
system.mem_ctrl.dram.perBankRdBursts::7        625074                       # Per bank write bursts (Count)
system.mem_ctrl.dram.perBankWrBursts::0        131084                       # Per bank write bursts (Count)
system.mem_ctrl.dram.perBankWrBursts::1        131080                       # Per bank write bursts (Count)
system.mem_ctrl.dram.perBankWrBursts::2        131078                       # Per bank write bursts (Count)
system.mem_ctrl.dram.perBankWrBursts::3        131221                       # Per bank write bursts (Count)
system.mem_ctrl.dram.perBankWrBursts::4        131226                       # Per bank write bursts (Count)
system.mem_ctrl.dram.perBankWrBursts::5        131202                       # Per bank write bursts (Count)
system.mem_ctrl.dram.perBankWrBursts::6        131222                       # Per bank write bursts (Count)
system.mem_ctrl.dram.perBankWrBursts::7        130698                       # Per bank write bursts (Count)
system.mem_ctrl.dram.totQLat             124956687664                       # Total ticks spent queuing (Tick)
system.mem_ctrl.dram.totBusLat            20434990000                       # Total ticks spent in databus transfers (Tick)
system.mem_ctrl.dram.totMemAccLat        206696647664                       # Total ticks spent from burst creation until serviced by the DRAM (Tick)
system.mem_ctrl.dram.avgQLat                 30574.20                       # Average queueing delay per DRAM burst ((Tick/Count))
system.mem_ctrl.dram.avgBusLat                5000.00                       # Average bus latency per DRAM burst ((Tick/Count))
system.mem_ctrl.dram.avgMemAccLat            50574.20                       # Average memory access latency per DRAM burst ((Tick/Count))
system.mem_ctrl.dram.readRowHits              2252952                       # Number of row buffer hits during reads (Count)
system.mem_ctrl.dram.writeRowHits              901341                       # Number of row buffer hits during writes (Count)
system.mem_ctrl.dram.readRowHitRate             55.12                       # Row buffer hit rate for reads (Ratio)
system.mem_ctrl.dram.writeRowHitRate            85.94                       # Row buffer hit rate for writes (Ratio)
system.mem_ctrl.dram.bytesPerActivate::samples      1981516                       # Bytes accessed per row activation (Byte)
system.mem_ctrl.dram.bytesPerActivate::mean    82.939471                       # Bytes accessed per row activation (Byte)
system.mem_ctrl.dram.bytesPerActivate::gmean    72.711838                       # Bytes accessed per row activation (Byte)
system.mem_ctrl.dram.bytesPerActivate::stdev    73.447494                       # Bytes accessed per row activation (Byte)
system.mem_ctrl.dram.bytesPerActivate::0-63        19580      0.99%      0.99% # Bytes accessed per row activation (Byte)
system.mem_ctrl.dram.bytesPerActivate::64-127      1689009     85.24%     86.23% # Bytes accessed per row activation (Byte)
system.mem_ctrl.dram.bytesPerActivate::128-191       215347     10.87%     97.09% # Bytes accessed per row activation (Byte)
system.mem_ctrl.dram.bytesPerActivate::192-255         1946      0.10%     97.19% # Bytes accessed per row activation (Byte)
system.mem_ctrl.dram.bytesPerActivate::256-319         1887      0.10%     97.29% # Bytes accessed per row activation (Byte)
system.mem_ctrl.dram.bytesPerActivate::320-383         1891      0.10%     97.38% # Bytes accessed per row activation (Byte)
system.mem_ctrl.dram.bytesPerActivate::384-447         1829      0.09%     97.48% # Bytes accessed per row activation (Byte)
system.mem_ctrl.dram.bytesPerActivate::448-511         2648      0.13%     97.61% # Bytes accessed per row activation (Byte)
system.mem_ctrl.dram.bytesPerActivate::512-575        47379      2.39%    100.00% # Bytes accessed per row activation (Byte)
system.mem_ctrl.dram.bytesPerActivate::total      1981516                       # Bytes accessed per row activation (Byte)
system.mem_ctrl.dram.bytesRead              130783936                       # Total bytes read (Byte)
system.mem_ctrl.dram.bytesWritten            33561952                       # Total bytes written (Byte)
system.mem_ctrl.dram.avgRdBW                83.461948                       # Average DRAM read bandwidth in MiBytes/s ((Byte/Second))
system.mem_ctrl.dram.avgWrBW                21.418119                       # Average DRAM write bandwidth in MiBytes/s ((Byte/Second))
system.mem_ctrl.dram.peakBW                   6400.00                       # Theoretical peak bandwidth in MiByte/s ((Byte/Second))
system.mem_ctrl.dram.busUtil                     1.64                       # Data bus utilization in percentage (Ratio)
system.mem_ctrl.dram.busUtilRead                 1.30                       # Data bus utilization in percentage for reads (Ratio)
system.mem_ctrl.dram.busUtilWrite                0.33                       # Data bus utilization in percentage for writes (Ratio)
system.mem_ctrl.dram.pageHitRate                61.42                       # Row buffer hit rate, read and write combined (Ratio)
system.mem_ctrl.dram.power_state.pwrStateResidencyTicks::UNDEFINED 1566988784512                       # Cumulative time (in ticks) in various power states (Tick)
system.mem_ctrl.dram.rank0.actEnergy       3537006060                       # Energy for activate commands per rank (pJ) (Joule)
system.mem_ctrl.dram.rank0.preEnergy     1864210252.802086                       # Energy for precharge commands per rank (pJ) (Joule)
system.mem_ctrl.dram.rank0.readEnergy      4806309648                       # Energy for read commands per rank (pJ) (Joule)
system.mem_ctrl.dram.rank0.writeEnergy      981687096                       # Energy for write commands per rank (pJ) (Joule)
system.mem_ctrl.dram.rank0.refreshEnergy   9760377900                       # Energy for refresh commands per rank (pJ) (Joule)
system.mem_ctrl.dram.rank0.actBackEnergy  57413975220                       # Energy for active background per rank (pJ) (Joule)
system.mem_ctrl.dram.rank0.preBackEnergy 8939485305.612328                       # Energy for precharge background per rank (pJ) (Joule)
system.mem_ctrl.dram.rank0.actPowerDownEnergy            0                       # Energy for active power-down per rank (pJ) (Joule)
system.mem_ctrl.dram.rank0.prePowerDownEnergy            0                       # Energy for precharge power-down per rank (pJ) (Joule)
system.mem_ctrl.dram.rank0.selfRefreshEnergy            0                       # Energy for self refresh per rank (pJ) (Joule)
system.mem_ctrl.dram.rank0.totalEnergy   87303051482.292969                       # Total energy per rank (pJ) (Joule)
system.mem_ctrl.dram.rank0.averagePower     55.713897                       # Core power per rank (mW) (Watt)
system.mem_ctrl.dram.rank0.totalIdleTime            0                       # Total Idle time Per DRAM Rank (Tick)
system.mem_ctrl.dram.rank0.pwrStateTime::IDLE 257114870028                       # Time in different power states (Tick)
system.mem_ctrl.dram.rank0.pwrStateTime::REF  52475076512                       # Time in different power states (Tick)
system.mem_ctrl.dram.rank0.pwrStateTime::SREF            0                       # Time in different power states (Tick)
system.mem_ctrl.dram.rank0.pwrStateTime::PRE_PDN            0                       # Time in different power states (Tick)
system.mem_ctrl.dram.rank0.pwrStateTime::ACT 1257398837972                       # Time in different power states (Tick)
system.mem_ctrl.dram.rank0.pwrStateTime::ACT_PDN            0                       # Time in different power states (Tick)
system.mem_ctrl.power_state.pwrStateResidencyTicks::UNDEFINED 1566988784512                       # Cumulative time (in ticks) in various power states (Tick)
system.membus.transDist::ReadResp             1518968                       # Transaction distribution (Count)
system.membus.transDist::WritebackDirty        524417                       # Transaction distribution (Count)
system.membus.transDist::CleanEvict           1485925                       # Transaction distribution (Count)
system.membus.transDist::ReadExReq             524531                       # Transaction distribution (Count)
system.membus.transDist::ReadExResp            524531                       # Transaction distribution (Count)
system.membus.transDist::ReadSharedReq        1518968                       # Transaction distribution (Count)
system.membus.pktCount_system.l2cache.mem_side_port::system.mem_ctrl.port      6097340                       # Packet count per connected requestor and responder (Count)
system.membus.pktCount::total                 6097340                       # Packet count per connected requestor and responder (Count)
system.membus.pktSize_system.l2cache.mem_side_port::system.mem_ctrl.port    164346624                       # Cumulative packet size per connected requestor and responder (Byte)
system.membus.pktSize::total                164346624                       # Cumulative packet size per connected requestor and responder (Byte)
system.membus.snoops                                0                       # Total snoops (Count)
system.membus.snoopTraffic                          0                       # Total snoop traffic (Byte)
system.membus.snoopFanout::samples            2043499                       # Request fanout histogram (Count)
system.membus.snoopFanout::mean                     0                       # Request fanout histogram (Count)
system.membus.snoopFanout::stdev                    0                       # Request fanout histogram (Count)
system.membus.snoopFanout::underflows               0      0.00%      0.00% # Request fanout histogram (Count)
system.membus.snoopFanout::0                  2043499    100.00%    100.00% # Request fanout histogram (Count)
system.membus.snoopFanout::1                        0      0.00%    100.00% # Request fanout histogram (Count)
system.membus.snoopFanout::overflows                0      0.00%    100.00% # Request fanout histogram (Count)
system.membus.snoopFanout::min_value                0                       # Request fanout histogram (Count)
system.membus.snoopFanout::max_value                0                       # Request fanout histogram (Count)
system.membus.snoopFanout::total              2043499                       # Request fanout histogram (Count)
system.membus.power_state.pwrStateResidencyTicks::UNDEFINED 1566988784512                       # Cumulative time (in ticks) in various power states (Tick)
system.membus.reqLayer0.occupancy          3567837712                       # Layer occupancy (ticks) (Tick)
system.membus.reqLayer0.utilization               0.0                       # Layer utilization (Ratio)
system.membus.respLayer0.occupancy         5130069668                       # Layer occupancy (ticks) (Tick)
system.membus.respLayer0.utilization              0.0                       # Layer utilization (Ratio)
system.membus.snoop_filter.totRequests        4053841                       # Total number of requests made to the snoop filter. (Count)
system.membus.snoop_filter.hitSingleRequests      2010342                       # Number of requests hitting in the snoop filter with a single holder of the requested data. (Count)
system.membus.snoop_filter.hitMultiRequests            0                       # Number of requests hitting in the snoop filter with multiple (>1) holders of the requested data. (Count)
system.membus.snoop_filter.totSnoops                0                       # Total number of snoops made to the snoop filter. (Count)
system.membus.snoop_filter.hitSingleSnoops            0                       # Number of snoops hitting in the snoop filter with a single holder of the requested data. (Count)
system.membus.snoop_filter.hitMultiSnoops            0                       # Number of snoops hitting in the snoop filter with multiple (>1) holders of the requested data. (Count)
system.workload.inst.arm                            0                       # number of arm instructions executed (Count)
system.workload.inst.quiesce                        0                       # number of quiesce instructions executed (Count)

---------- End Simulation Statistics   ----------
