
---------- Begin Simulation Statistics ----------
simSeconds                                   0.643486                       # Number of seconds simulated (Second)
simTicks                                 643486147416                       # Number of ticks simulated (Tick)
finalTick                                643486147416                       # Number of ticks from beginning of simulation (restored from checkpoints and never reset) (Tick)
simFreq                                  1000000000000                       # The number of ticks per simulated second ((Tick/Second))
hostSeconds                                   2693.54                       # Real time elapsed on the host (Second)
hostTickRate                                238900117                       # The number of ticks simulated per host second (ticks/s) ((Tick/Second))
hostMemory                                    2293784                       # Number of bytes of host memory used (Byte)
simInsts                                   1000000000                       # Number of instructions simulated (Count)
simOps                                     1132164394                       # Number of ops (including micro ops) simulated (Count)
hostInstRate                                   371259                       # Simulator instruction rate (inst/s) ((Count/Second))
hostOpRate                                     420326                       # Simulator op (including micro ops) rate (op/s) ((Count/Second))
system.clk_domain.clock                           500                       # Clock period in ticks (Tick)
system.clk_domain.voltage_domain.voltage            1                       # Voltage in Volts (Volt)
system.cpu.numCycles                       1157349186                       # Number of cpu cycles simulated (Cycle)
system.cpu.numWorkItemsStarted                      0                       # Number of work items this cpu started (Count)
system.cpu.numWorkItemsCompleted                    0                       # Number of work items this cpu completed (Count)
system.cpu.numInsts                        1000000000                       # Number of instructions committed (Count)
system.cpu.numOps                          1132164394                       # Number of ops (including micro ops) committed (Count)
system.cpu.numDiscardedOps                   19174212                       # Number of ops (including micro ops) which were discarded before commit (Count)
system.cpu.numFetchSuspends                         0                       # Number of times Execute suspended instruction fetching (Count)
system.cpu.cpi                               1.157349                       # CPI: cycles per instruction ((Cycle/Count))
system.cpu.ipc                               0.864043                       # IPC: instructions per cycle ((Count/Cycle))
system.cpu.committedInstType_0::No_OpClass            0      0.00%      0.00% # Class of committed instruction (Count)
system.cpu.committedInstType_0::IntAlu      728754364     64.37%     64.37% # Class of committed instruction (Count)
system.cpu.committedInstType_0::IntMult       5879905      0.52%     64.89% # Class of committed instruction (Count)
system.cpu.committedInstType_0::IntDiv              0      0.00%     64.89% # Class of committed instruction (Count)
system.cpu.committedInstType_0::FloatAdd            0      0.00%     64.89% # Class of committed instruction (Count)
system.cpu.committedInstType_0::FloatCmp            0      0.00%     64.89% # Class of committed instruction (Count)
system.cpu.committedInstType_0::FloatCvt            0      0.00%     64.89% # Class of committed instruction (Count)
system.cpu.committedInstType_0::FloatMult            0      0.00%     64.89% # Class of committed instruction (Count)
system.cpu.committedInstType_0::FloatMultAcc            0      0.00%     64.89% # Class of committed instruction (Count)
system.cpu.committedInstType_0::FloatDiv            0      0.00%     64.89% # Class of committed instruction (Count)
system.cpu.committedInstType_0::FloatMisc            0      0.00%     64.89% # Class of committed instruction (Count)
system.cpu.committedInstType_0::FloatSqrt            0      0.00%     64.89% # Class of committed instruction (Count)
system.cpu.committedInstType_0::SimdAdd             0      0.00%     64.89% # Class of committed instruction (Count)
system.cpu.committedInstType_0::SimdAddAcc            0      0.00%     64.89% # Class of committed instruction (Count)
system.cpu.committedInstType_0::SimdAlu             0      0.00%     64.89% # Class of committed instruction (Count)
system.cpu.committedInstType_0::SimdCmp             0      0.00%     64.89% # Class of committed instruction (Count)
system.cpu.committedInstType_0::SimdCvt             0      0.00%     64.89% # Class of committed instruction (Count)
system.cpu.committedInstType_0::SimdMisc            0      0.00%     64.89% # Class of committed instruction (Count)
system.cpu.committedInstType_0::SimdMult            0      0.00%     64.89% # Class of committed instruction (Count)
system.cpu.committedInstType_0::SimdMultAcc            0      0.00%     64.89% # Class of committed instruction (Count)
system.cpu.committedInstType_0::SimdShift            0      0.00%     64.89% # Class of committed instruction (Count)
system.cpu.committedInstType_0::SimdShiftAcc            0      0.00%     64.89% # Class of committed instruction (Count)
system.cpu.committedInstType_0::SimdDiv             0      0.00%     64.89% # Class of committed instruction (Count)
system.cpu.committedInstType_0::SimdSqrt            0      0.00%     64.89% # Class of committed instruction (Count)
system.cpu.committedInstType_0::SimdFloatAdd            0      0.00%     64.89% # Class of committed instruction (Count)
system.cpu.committedInstType_0::SimdFloatAlu            0      0.00%     64.89% # Class of committed instruction (Count)
system.cpu.committedInstType_0::SimdFloatCmp            0      0.00%     64.89% # Class of committed instruction (Count)
system.cpu.committedInstType_0::SimdFloatCvt            0      0.00%     64.89% # Class of committed instruction (Count)
system.cpu.committedInstType_0::SimdFloatDiv            0      0.00%     64.89% # Class of committed instruction (Count)
system.cpu.committedInstType_0::SimdFloatMisc            0      0.00%     64.89% # Class of committed instruction (Count)
system.cpu.committedInstType_0::SimdFloatMult            0      0.00%     64.89% # Class of committed instruction (Count)
system.cpu.committedInstType_0::SimdFloatMultAcc            0      0.00%     64.89% # Class of committed instruction (Count)
system.cpu.committedInstType_0::SimdFloatSqrt            0      0.00%     64.89% # Class of committed instruction (Count)
system.cpu.committedInstType_0::SimdReduceAdd            0      0.00%     64.89% # Class of committed instruction (Count)
system.cpu.committedInstType_0::SimdReduceAlu            0      0.00%     64.89% # Class of committed instruction (Count)
system.cpu.committedInstType_0::SimdReduceCmp            0      0.00%     64.89% # Class of committed instruction (Count)
system.cpu.committedInstType_0::SimdFloatReduceAdd            0      0.00%     64.89% # Class of committed instruction (Count)
system.cpu.committedInstType_0::SimdFloatReduceCmp            0      0.00%     64.89% # Class of committed instruction (Count)
system.cpu.committedInstType_0::SimdAes             0      0.00%     64.89% # Class of committed instruction (Count)
system.cpu.committedInstType_0::SimdAesMix            0      0.00%     64.89% # Class of committed instruction (Count)
system.cpu.committedInstType_0::SimdSha1Hash            0      0.00%     64.89% # Class of committed instruction (Count)
system.cpu.committedInstType_0::SimdSha1Hash2            0      0.00%     64.89% # Class of committed instruction (Count)
system.cpu.committedInstType_0::SimdSha256Hash            0      0.00%     64.89% # Class of committed instruction (Count)
system.cpu.committedInstType_0::SimdSha256Hash2            0      0.00%     64.89% # Class of committed instruction (Count)
system.cpu.committedInstType_0::SimdShaSigma2            0      0.00%     64.89% # Class of committed instruction (Count)
system.cpu.committedInstType_0::SimdShaSigma3            0      0.00%     64.89% # Class of committed instruction (Count)
system.cpu.committedInstType_0::SimdPredAlu            0      0.00%     64.89% # Class of committed instruction (Count)
system.cpu.committedInstType_0::MemRead     248982646     21.99%     86.88% # Class of committed instruction (Count)
system.cpu.committedInstType_0::MemWrite    148547479     13.12%    100.00% # Class of committed instruction (Count)
system.cpu.committedInstType_0::FloatMemRead            0      0.00%    100.00% # Class of committed instruction (Count)
system.cpu.committedInstType_0::FloatMemWrite            0      0.00%    100.00% # Class of committed instruction (Count)
system.cpu.committedInstType_0::IprAccess            0      0.00%    100.00% # Class of committed instruction (Count)
system.cpu.committedInstType_0::InstPrefetch            0      0.00%    100.00% # Class of committed instruction (Count)
system.cpu.committedInstType_0::total      1132164394                       # Class of committed instruction (Count)
system.cpu.branchPred.lookups               211796464                       # Number of BP lookups (Count)
system.cpu.branchPred.condPredicted         162477444                       # Number of conditional branches predicted (Count)
system.cpu.branchPred.condIncorrect           5427401                       # Number of conditional branches incorrect (Count)
system.cpu.branchPred.BTBLookups             63711004                       # Number of BTB lookups (Count)
system.cpu.branchPred.BTBHits                58696319                       # Number of BTB hits (Count)
system.cpu.branchPred.BTBHitRatio            0.921290                       # BTB Hit Ratio (Ratio)
system.cpu.branchPred.RASUsed                22132805                       # Number of times the RAS was used to get a target. (Count)
system.cpu.branchPred.RASIncorrect                438                       # Number of incorrect RAS predictions. (Count)
system.cpu.branchPred.indirectLookups         2508977                       # Number of indirect predictor lookups. (Count)
system.cpu.branchPred.indirectHits            2508227                       # Number of indirect target hits. (Count)
system.cpu.branchPred.indirectMisses              750                       # Number of indirect misses. (Count)
system.cpu.branchPred.indirectMispredicted         1324                       # Number of mispredicted indirect branches. (Count)
system.cpu.dcache.demandHits::cpu.data      391331052                       # number of demand (read+write) hits (Count)
system.cpu.dcache.demandHits::total         391331052                       # number of demand (read+write) hits (Count)
system.cpu.dcache.overallHits::cpu.data     391331052                       # number of overall hits (Count)
system.cpu.dcache.overallHits::total        391331052                       # number of overall hits (Count)
system.cpu.dcache.demandMisses::cpu.data       303200                       # number of demand (read+write) misses (Count)
system.cpu.dcache.demandMisses::total          303200                       # number of demand (read+write) misses (Count)
system.cpu.dcache.overallMisses::cpu.data       303200                       # number of overall misses (Count)
system.cpu.dcache.overallMisses::total         303200                       # number of overall misses (Count)
system.cpu.dcache.demandMissLatency::cpu.data  24123371352                       # number of demand (read+write) miss ticks (Tick)
system.cpu.dcache.demandMissLatency::total  24123371352                       # number of demand (read+write) miss ticks (Tick)
system.cpu.dcache.overallMissLatency::cpu.data  24123371352                       # number of overall miss ticks (Tick)
system.cpu.dcache.overallMissLatency::total  24123371352                       # number of overall miss ticks (Tick)
system.cpu.dcache.demandAccesses::cpu.data    391634252                       # number of demand (read+write) accesses (Count)
system.cpu.dcache.demandAccesses::total     391634252                       # number of demand (read+write) accesses (Count)
system.cpu.dcache.overallAccesses::cpu.data    391634252                       # number of overall (read+write) accesses (Count)
system.cpu.dcache.overallAccesses::total    391634252                       # number of overall (read+write) accesses (Count)
system.cpu.dcache.demandMissRate::cpu.data     0.000774                       # miss rate for demand accesses (Ratio)
system.cpu.dcache.demandMissRate::total      0.000774                       # miss rate for demand accesses (Ratio)
system.cpu.dcache.overallMissRate::cpu.data     0.000774                       # miss rate for overall accesses (Ratio)
system.cpu.dcache.overallMissRate::total     0.000774                       # miss rate for overall accesses (Ratio)
system.cpu.dcache.demandAvgMissLatency::cpu.data 79562.570422                       # average overall miss latency in ticks ((Tick/Count))
system.cpu.dcache.demandAvgMissLatency::total 79562.570422                       # average overall miss latency in ticks ((Tick/Count))
system.cpu.dcache.overallAvgMissLatency::cpu.data 79562.570422                       # average overall miss latency ((Tick/Count))
system.cpu.dcache.overallAvgMissLatency::total 79562.570422                       # average overall miss latency ((Tick/Count))
system.cpu.dcache.blockedCycles::no_mshrs            0                       # number of cycles access was blocked (Cycle)
system.cpu.dcache.blockedCycles::no_targets            0                       # number of cycles access was blocked (Cycle)
system.cpu.dcache.blockedCauses::no_mshrs            0                       # number of times access was blocked (Count)
system.cpu.dcache.blockedCauses::no_targets            0                       # number of times access was blocked (Count)
system.cpu.dcache.avgBlocked::no_mshrs            nan                       # average number of cycles each access was blocked ((Cycle/Count))
system.cpu.dcache.avgBlocked::no_targets          nan                       # average number of cycles each access was blocked ((Cycle/Count))
system.cpu.dcache.writebacks::writebacks       150229                       # number of writebacks (Count)
system.cpu.dcache.writebacks::total            150229                       # number of writebacks (Count)
system.cpu.dcache.demandMshrHits::cpu.data       117910                       # number of demand (read+write) MSHR hits (Count)
system.cpu.dcache.demandMshrHits::total        117910                       # number of demand (read+write) MSHR hits (Count)
system.cpu.dcache.overallMshrHits::cpu.data       117910                       # number of overall MSHR hits (Count)
system.cpu.dcache.overallMshrHits::total       117910                       # number of overall MSHR hits (Count)
system.cpu.dcache.demandMshrMisses::cpu.data       185290                       # number of demand (read+write) MSHR misses (Count)
system.cpu.dcache.demandMshrMisses::total       185290                       # number of demand (read+write) MSHR misses (Count)
system.cpu.dcache.overallMshrMisses::cpu.data       185290                       # number of overall MSHR misses (Count)
system.cpu.dcache.overallMshrMisses::total       185290                       # number of overall MSHR misses (Count)
system.cpu.dcache.demandMshrMissLatency::cpu.data  13527563844                       # number of demand (read+write) MSHR miss ticks (Tick)
system.cpu.dcache.demandMshrMissLatency::total  13527563844                       # number of demand (read+write) MSHR miss ticks (Tick)
system.cpu.dcache.overallMshrMissLatency::cpu.data  13527563844                       # number of overall MSHR miss ticks (Tick)
system.cpu.dcache.overallMshrMissLatency::total  13527563844                       # number of overall MSHR miss ticks (Tick)
system.cpu.dcache.demandMshrMissRate::cpu.data     0.000473                       # mshr miss ratio for demand accesses (Ratio)
system.cpu.dcache.demandMshrMissRate::total     0.000473                       # mshr miss ratio for demand accesses (Ratio)
system.cpu.dcache.overallMshrMissRate::cpu.data     0.000473                       # mshr miss ratio for overall accesses (Ratio)
system.cpu.dcache.overallMshrMissRate::total     0.000473                       # mshr miss ratio for overall accesses (Ratio)
system.cpu.dcache.demandAvgMshrMissLatency::cpu.data 73007.522500                       # average overall mshr miss latency ((Tick/Count))
system.cpu.dcache.demandAvgMshrMissLatency::total 73007.522500                       # average overall mshr miss latency ((Tick/Count))
system.cpu.dcache.overallAvgMshrMissLatency::cpu.data 73007.522500                       # average overall mshr miss latency ((Tick/Count))
system.cpu.dcache.overallAvgMshrMissLatency::total 73007.522500                       # average overall mshr miss latency ((Tick/Count))
system.cpu.dcache.replacements                 184778                       # number of replacements (Count)
system.cpu.dcache.LoadLockedReq.hits::cpu.data          427                       # number of LoadLockedReq hits (Count)
system.cpu.dcache.LoadLockedReq.hits::total          427                       # number of LoadLockedReq hits (Count)
system.cpu.dcache.LoadLockedReq.accesses::cpu.data          427                       # number of LoadLockedReq accesses(hits+misses) (Count)
system.cpu.dcache.LoadLockedReq.accesses::total          427                       # number of LoadLockedReq accesses(hits+misses) (Count)
system.cpu.dcache.ReadReq.hits::cpu.data    245947410                       # number of ReadReq hits (Count)
system.cpu.dcache.ReadReq.hits::total       245947410                       # number of ReadReq hits (Count)
system.cpu.dcache.ReadReq.misses::cpu.data        67351                       # number of ReadReq misses (Count)
system.cpu.dcache.ReadReq.misses::total         67351                       # number of ReadReq misses (Count)
system.cpu.dcache.ReadReq.missLatency::cpu.data   3491317672                       # number of ReadReq miss ticks (Tick)
system.cpu.dcache.ReadReq.missLatency::total   3491317672                       # number of ReadReq miss ticks (Tick)
system.cpu.dcache.ReadReq.accesses::cpu.data    246014761                       # number of ReadReq accesses(hits+misses) (Count)
system.cpu.dcache.ReadReq.accesses::total    246014761                       # number of ReadReq accesses(hits+misses) (Count)
system.cpu.dcache.ReadReq.missRate::cpu.data     0.000274                       # miss rate for ReadReq accesses (Ratio)
system.cpu.dcache.ReadReq.missRate::total     0.000274                       # miss rate for ReadReq accesses (Ratio)
system.cpu.dcache.ReadReq.avgMissLatency::cpu.data 51837.651586                       # average ReadReq miss latency ((Tick/Count))
system.cpu.dcache.ReadReq.avgMissLatency::total 51837.651586                       # average ReadReq miss latency ((Tick/Count))
system.cpu.dcache.ReadReq.mshrHits::cpu.data           48                       # number of ReadReq MSHR hits (Count)
system.cpu.dcache.ReadReq.mshrHits::total           48                       # number of ReadReq MSHR hits (Count)
system.cpu.dcache.ReadReq.mshrMisses::cpu.data        67303                       # number of ReadReq MSHR misses (Count)
system.cpu.dcache.ReadReq.mshrMisses::total        67303                       # number of ReadReq MSHR misses (Count)
system.cpu.dcache.ReadReq.mshrMissLatency::cpu.data   3394552560                       # number of ReadReq MSHR miss ticks (Tick)
system.cpu.dcache.ReadReq.mshrMissLatency::total   3394552560                       # number of ReadReq MSHR miss ticks (Tick)
system.cpu.dcache.ReadReq.mshrMissRate::cpu.data     0.000274                       # mshr miss rate for ReadReq accesses (Ratio)
system.cpu.dcache.ReadReq.mshrMissRate::total     0.000274                       # mshr miss rate for ReadReq accesses (Ratio)
system.cpu.dcache.ReadReq.avgMshrMissLatency::cpu.data 50436.868490                       # average ReadReq mshr miss latency ((Tick/Count))
system.cpu.dcache.ReadReq.avgMshrMissLatency::total 50436.868490                       # average ReadReq mshr miss latency ((Tick/Count))
system.cpu.dcache.StoreCondReq.hits::cpu.data          427                       # number of StoreCondReq hits (Count)
system.cpu.dcache.StoreCondReq.hits::total          427                       # number of StoreCondReq hits (Count)
system.cpu.dcache.StoreCondReq.accesses::cpu.data          427                       # number of StoreCondReq accesses(hits+misses) (Count)
system.cpu.dcache.StoreCondReq.accesses::total          427                       # number of StoreCondReq accesses(hits+misses) (Count)
system.cpu.dcache.WriteReq.hits::cpu.data    145383642                       # number of WriteReq hits (Count)
system.cpu.dcache.WriteReq.hits::total      145383642                       # number of WriteReq hits (Count)
system.cpu.dcache.WriteReq.misses::cpu.data       235849                       # number of WriteReq misses (Count)
system.cpu.dcache.WriteReq.misses::total       235849                       # number of WriteReq misses (Count)
system.cpu.dcache.WriteReq.missLatency::cpu.data  20632053680                       # number of WriteReq miss ticks (Tick)
system.cpu.dcache.WriteReq.missLatency::total  20632053680                       # number of WriteReq miss ticks (Tick)
system.cpu.dcache.WriteReq.accesses::cpu.data    145619491                       # number of WriteReq accesses(hits+misses) (Count)
system.cpu.dcache.WriteReq.accesses::total    145619491                       # number of WriteReq accesses(hits+misses) (Count)
system.cpu.dcache.WriteReq.missRate::cpu.data     0.001620                       # miss rate for WriteReq accesses (Ratio)
system.cpu.dcache.WriteReq.missRate::total     0.001620                       # miss rate for WriteReq accesses (Ratio)
system.cpu.dcache.WriteReq.avgMissLatency::cpu.data 87479.928598                       # average WriteReq miss latency ((Tick/Count))
system.cpu.dcache.WriteReq.avgMissLatency::total 87479.928598                       # average WriteReq miss latency ((Tick/Count))
system.cpu.dcache.WriteReq.mshrHits::cpu.data       117862                       # number of WriteReq MSHR hits (Count)
system.cpu.dcache.WriteReq.mshrHits::total       117862                       # number of WriteReq MSHR hits (Count)
system.cpu.dcache.WriteReq.mshrMisses::cpu.data       117987                       # number of WriteReq MSHR misses (Count)
system.cpu.dcache.WriteReq.mshrMisses::total       117987                       # number of WriteReq MSHR misses (Count)
system.cpu.dcache.WriteReq.mshrMissLatency::cpu.data  10133011284                       # number of WriteReq MSHR miss ticks (Tick)
system.cpu.dcache.WriteReq.mshrMissLatency::total  10133011284                       # number of WriteReq MSHR miss ticks (Tick)
system.cpu.dcache.WriteReq.mshrMissRate::cpu.data     0.000810                       # mshr miss rate for WriteReq accesses (Ratio)
system.cpu.dcache.WriteReq.mshrMissRate::total     0.000810                       # mshr miss rate for WriteReq accesses (Ratio)
system.cpu.dcache.WriteReq.avgMshrMissLatency::cpu.data 85882.438608                       # average WriteReq mshr miss latency ((Tick/Count))
system.cpu.dcache.WriteReq.avgMshrMissLatency::total 85882.438608                       # average WriteReq mshr miss latency ((Tick/Count))
system.cpu.dcache.power_state.pwrStateResidencyTicks::UNDEFINED 643486147416                       # Cumulative time (in ticks) in various power states (Tick)
system.cpu.dcache.tags.tagsInUse           511.904851                       # Average ticks per tags in use ((Tick/Count))
system.cpu.dcache.tags.totalRefs            391517196                       # Total number of references to valid blocks. (Count)
system.cpu.dcache.tags.sampledRefs             185290                       # Sample count of references to valid blocks. (Count)
system.cpu.dcache.tags.avgRefs            2112.996902                       # Average number of references to valid blocks. ((Count/Count))
system.cpu.dcache.tags.warmupTick              166000                       # The tick when the warmup percentage was hit. (Tick)
system.cpu.dcache.tags.occupancies::cpu.data   511.904851                       # Average occupied blocks per tick, per requestor ((Count/Tick))
system.cpu.dcache.tags.avgOccs::cpu.data     0.999814                       # Average percentage of cache occupancy ((Ratio/Tick))
system.cpu.dcache.tags.avgOccs::total        0.999814                       # Average percentage of cache occupancy ((Ratio/Tick))
system.cpu.dcache.tags.occupanciesTaskId::1024          512                       # Occupied blocks per task id (Count)
system.cpu.dcache.tags.ageTaskId_1024::0            1                       # Occupied blocks per task id, per block age (Count)
system.cpu.dcache.tags.ageTaskId_1024::1            8                       # Occupied blocks per task id, per block age (Count)
system.cpu.dcache.tags.ageTaskId_1024::2           73                       # Occupied blocks per task id, per block age (Count)
system.cpu.dcache.tags.ageTaskId_1024::3          263                       # Occupied blocks per task id, per block age (Count)
system.cpu.dcache.tags.ageTaskId_1024::4          167                       # Occupied blocks per task id, per block age (Count)
system.cpu.dcache.tags.ratioOccsTaskId::1024            1                       # Ratio of occupied blocks and all blocks, per task id (Ratio)
system.cpu.dcache.tags.tagAccesses         1566725714                       # Number of tag accesses (Count)
system.cpu.dcache.tags.dataAccesses        1566725714                       # Number of data accesses (Count)
system.cpu.dcache.tags.power_state.pwrStateResidencyTicks::UNDEFINED 643486147416                       # Cumulative time (in ticks) in various power states (Tick)
system.cpu.fetch2.intInstructions           585340771                       # Number of integer instructions successfully decoded (Count)
system.cpu.fetch2.fpInstructions                    0                       # Number of floating point instructions successfully decoded (Count)
system.cpu.fetch2.vecInstructions                   0                       # Number of SIMD instructions successfully decoded (Count)
system.cpu.fetch2.loadInstructions          228807368                       # Number of memory load instructions successfully decoded (Count)
system.cpu.fetch2.storeInstructions          67334941                       # Number of memory store instructions successfully decoded (Count)
system.cpu.fetch2.amoInstructions                   0                       # Number of memory atomic instructions successfully decoded (Count)
system.cpu.icache.demandHits::cpu.inst      283844588                       # number of demand (read+write) hits (Count)
system.cpu.icache.demandHits::total         283844588                       # number of demand (read+write) hits (Count)
system.cpu.icache.overallHits::cpu.inst     283844588                       # number of overall hits (Count)
system.cpu.icache.overallHits::total        283844588                       # number of overall hits (Count)
system.cpu.icache.demandMisses::cpu.inst         2138                       # number of demand (read+write) misses (Count)
system.cpu.icache.demandMisses::total            2138                       # number of demand (read+write) misses (Count)
system.cpu.icache.overallMisses::cpu.inst         2138                       # number of overall misses (Count)
system.cpu.icache.overallMisses::total           2138                       # number of overall misses (Count)
system.cpu.icache.demandMissLatency::cpu.inst    110474976                       # number of demand (read+write) miss ticks (Tick)
system.cpu.icache.demandMissLatency::total    110474976                       # number of demand (read+write) miss ticks (Tick)
system.cpu.icache.overallMissLatency::cpu.inst    110474976                       # number of overall miss ticks (Tick)
system.cpu.icache.overallMissLatency::total    110474976                       # number of overall miss ticks (Tick)
system.cpu.icache.demandAccesses::cpu.inst    283846726                       # number of demand (read+write) accesses (Count)
system.cpu.icache.demandAccesses::total     283846726                       # number of demand (read+write) accesses (Count)
system.cpu.icache.overallAccesses::cpu.inst    283846726                       # number of overall (read+write) accesses (Count)
system.cpu.icache.overallAccesses::total    283846726                       # number of overall (read+write) accesses (Count)
system.cpu.icache.demandMissRate::cpu.inst     0.000008                       # miss rate for demand accesses (Ratio)
system.cpu.icache.demandMissRate::total      0.000008                       # miss rate for demand accesses (Ratio)
system.cpu.icache.overallMissRate::cpu.inst     0.000008                       # miss rate for overall accesses (Ratio)
system.cpu.icache.overallMissRate::total     0.000008                       # miss rate for overall accesses (Ratio)
system.cpu.icache.demandAvgMissLatency::cpu.inst 51672.112254                       # average overall miss latency in ticks ((Tick/Count))
system.cpu.icache.demandAvgMissLatency::total 51672.112254                       # average overall miss latency in ticks ((Tick/Count))
system.cpu.icache.overallAvgMissLatency::cpu.inst 51672.112254                       # average overall miss latency ((Tick/Count))
system.cpu.icache.overallAvgMissLatency::total 51672.112254                       # average overall miss latency ((Tick/Count))
system.cpu.icache.blockedCycles::no_mshrs            0                       # number of cycles access was blocked (Cycle)
system.cpu.icache.blockedCycles::no_targets            0                       # number of cycles access was blocked (Cycle)
system.cpu.icache.blockedCauses::no_mshrs            0                       # number of times access was blocked (Count)
system.cpu.icache.blockedCauses::no_targets            0                       # number of times access was blocked (Count)
system.cpu.icache.avgBlocked::no_mshrs            nan                       # average number of cycles each access was blocked ((Cycle/Count))
system.cpu.icache.avgBlocked::no_targets          nan                       # average number of cycles each access was blocked ((Cycle/Count))
system.cpu.icache.demandMshrMisses::cpu.inst         2138                       # number of demand (read+write) MSHR misses (Count)
system.cpu.icache.demandMshrMisses::total         2138                       # number of demand (read+write) MSHR misses (Count)
system.cpu.icache.overallMshrMisses::cpu.inst         2138                       # number of overall MSHR misses (Count)
system.cpu.icache.overallMshrMisses::total         2138                       # number of overall MSHR misses (Count)
system.cpu.icache.demandMshrMissLatency::cpu.inst    107541156                       # number of demand (read+write) MSHR miss ticks (Tick)
system.cpu.icache.demandMshrMissLatency::total    107541156                       # number of demand (read+write) MSHR miss ticks (Tick)
system.cpu.icache.overallMshrMissLatency::cpu.inst    107541156                       # number of overall MSHR miss ticks (Tick)
system.cpu.icache.overallMshrMissLatency::total    107541156                       # number of overall MSHR miss ticks (Tick)
system.cpu.icache.demandMshrMissRate::cpu.inst     0.000008                       # mshr miss ratio for demand accesses (Ratio)
system.cpu.icache.demandMshrMissRate::total     0.000008                       # mshr miss ratio for demand accesses (Ratio)
system.cpu.icache.overallMshrMissRate::cpu.inst     0.000008                       # mshr miss ratio for overall accesses (Ratio)
system.cpu.icache.overallMshrMissRate::total     0.000008                       # mshr miss ratio for overall accesses (Ratio)
system.cpu.icache.demandAvgMshrMissLatency::cpu.inst 50299.885875                       # average overall mshr miss latency ((Tick/Count))
system.cpu.icache.demandAvgMshrMissLatency::total 50299.885875                       # average overall mshr miss latency ((Tick/Count))
system.cpu.icache.overallAvgMshrMissLatency::cpu.inst 50299.885875                       # average overall mshr miss latency ((Tick/Count))
system.cpu.icache.overallAvgMshrMissLatency::total 50299.885875                       # average overall mshr miss latency ((Tick/Count))
system.cpu.icache.replacements                   1627                       # number of replacements (Count)
system.cpu.icache.ReadReq.hits::cpu.inst    283844588                       # number of ReadReq hits (Count)
system.cpu.icache.ReadReq.hits::total       283844588                       # number of ReadReq hits (Count)
system.cpu.icache.ReadReq.misses::cpu.inst         2138                       # number of ReadReq misses (Count)
system.cpu.icache.ReadReq.misses::total          2138                       # number of ReadReq misses (Count)
system.cpu.icache.ReadReq.missLatency::cpu.inst    110474976                       # number of ReadReq miss ticks (Tick)
system.cpu.icache.ReadReq.missLatency::total    110474976                       # number of ReadReq miss ticks (Tick)
system.cpu.icache.ReadReq.accesses::cpu.inst    283846726                       # number of ReadReq accesses(hits+misses) (Count)
system.cpu.icache.ReadReq.accesses::total    283846726                       # number of ReadReq accesses(hits+misses) (Count)
system.cpu.icache.ReadReq.missRate::cpu.inst     0.000008                       # miss rate for ReadReq accesses (Ratio)
system.cpu.icache.ReadReq.missRate::total     0.000008                       # miss rate for ReadReq accesses (Ratio)
system.cpu.icache.ReadReq.avgMissLatency::cpu.inst 51672.112254                       # average ReadReq miss latency ((Tick/Count))
system.cpu.icache.ReadReq.avgMissLatency::total 51672.112254                       # average ReadReq miss latency ((Tick/Count))
system.cpu.icache.ReadReq.mshrMisses::cpu.inst         2138                       # number of ReadReq MSHR misses (Count)
system.cpu.icache.ReadReq.mshrMisses::total         2138                       # number of ReadReq MSHR misses (Count)
system.cpu.icache.ReadReq.mshrMissLatency::cpu.inst    107541156                       # number of ReadReq MSHR miss ticks (Tick)
system.cpu.icache.ReadReq.mshrMissLatency::total    107541156                       # number of ReadReq MSHR miss ticks (Tick)
system.cpu.icache.ReadReq.mshrMissRate::cpu.inst     0.000008                       # mshr miss rate for ReadReq accesses (Ratio)
system.cpu.icache.ReadReq.mshrMissRate::total     0.000008                       # mshr miss rate for ReadReq accesses (Ratio)
system.cpu.icache.ReadReq.avgMshrMissLatency::cpu.inst 50299.885875                       # average ReadReq mshr miss latency ((Tick/Count))
system.cpu.icache.ReadReq.avgMshrMissLatency::total 50299.885875                       # average ReadReq mshr miss latency ((Tick/Count))
system.cpu.icache.power_state.pwrStateResidencyTicks::UNDEFINED 643486147416                       # Cumulative time (in ticks) in various power states (Tick)
system.cpu.icache.tags.tagsInUse           510.932783                       # Average ticks per tags in use ((Tick/Count))
system.cpu.icache.tags.totalRefs            283846726                       # Total number of references to valid blocks. (Count)
system.cpu.icache.tags.sampledRefs               2138                       # Sample count of references to valid blocks. (Count)
system.cpu.icache.tags.avgRefs           132762.734331                       # Average number of references to valid blocks. ((Count/Count))
system.cpu.icache.tags.warmupTick               81500                       # The tick when the warmup percentage was hit. (Tick)
system.cpu.icache.tags.occupancies::cpu.inst   510.932783                       # Average occupied blocks per tick, per requestor ((Count/Tick))
system.cpu.icache.tags.avgOccs::cpu.inst     0.997916                       # Average percentage of cache occupancy ((Ratio/Tick))
system.cpu.icache.tags.avgOccs::total        0.997916                       # Average percentage of cache occupancy ((Ratio/Tick))
system.cpu.icache.tags.occupanciesTaskId::1024          511                       # Occupied blocks per task id (Count)
system.cpu.icache.tags.ageTaskId_1024::4          511                       # Occupied blocks per task id, per block age (Count)
system.cpu.icache.tags.ratioOccsTaskId::1024     0.998047                       # Ratio of occupied blocks and all blocks, per task id (Ratio)
system.cpu.icache.tags.tagAccesses         1135389042                       # Number of tag accesses (Count)
system.cpu.icache.tags.dataAccesses        1135389042                       # Number of data accesses (Count)
system.cpu.icache.tags.power_state.pwrStateResidencyTicks::UNDEFINED 643486147416                       # Cumulative time (in ticks) in various power states (Tick)
system.cpu.mmu.alignFaults                          0                       # Number of MMU faults due to alignment restrictions (Count)
system.cpu.mmu.prefetchFaults                       0                       # Number of MMU faults due to prefetch (Count)
system.cpu.mmu.domainFaults                         0                       # Number of MMU faults due to domain restrictions (Count)
system.cpu.mmu.permsFaults                          0                       # Number of MMU faults due to permissions restrictions (Count)
system.cpu.mmu.dtb.readHits                         0                       # Read hits (Count)
system.cpu.mmu.dtb.readMisses                       0                       # Read misses (Count)
system.cpu.mmu.dtb.writeHits                        0                       # Write hits (Count)
system.cpu.mmu.dtb.writeMisses                      0                       # Write misses (Count)
system.cpu.mmu.dtb.inserts                          0                       # Number of times an entry is inserted into the TLB (Count)
system.cpu.mmu.dtb.flushTlb                         4                       # Number of times complete TLB was flushed (Count)
system.cpu.mmu.dtb.flushTlbMva                      0                       # Number of times TLB was flushed by MVA (Count)
system.cpu.mmu.dtb.flushTlbMvaAsid                  0                       # Number of times TLB was flushed by MVA & ASID (Count)
system.cpu.mmu.dtb.flushTlbAsid                     0                       # Number of times TLB was flushed by ASID (Count)
system.cpu.mmu.dtb.flushedEntries                   0                       # Number of entries that have been flushed from TLB (Count)
system.cpu.mmu.dtb.readAccesses                     0                       # Read accesses (Count)
system.cpu.mmu.dtb.writeAccesses                    0                       # Write accesses (Count)
system.cpu.mmu.dtb.hits                             0                       # Total TLB (inst and data) hits (Count)
system.cpu.mmu.dtb.misses                           0                       # Total TLB (inst and data) misses (Count)
system.cpu.mmu.dtb.accesses                         0                       # Total TLB (inst and data) accesses (Count)
system.cpu.mmu.dtb_walker.walks                     0                       # Table walker walks requested (Count)
system.cpu.mmu.dtb_walker.requestOrigin_Requested::Data            0                       # Table walker requests started/completed, data/inst (Count)
system.cpu.mmu.dtb_walker.requestOrigin_Requested::Inst            0                       # Table walker requests started/completed, data/inst (Count)
system.cpu.mmu.dtb_walker.requestOrigin_Requested::total            0                       # Table walker requests started/completed, data/inst (Count)
system.cpu.mmu.dtb_walker.requestOrigin_Completed::Data            0                       # Table walker requests started/completed, data/inst (Count)
system.cpu.mmu.dtb_walker.requestOrigin_Completed::Inst            0                       # Table walker requests started/completed, data/inst (Count)
system.cpu.mmu.dtb_walker.requestOrigin_Completed::total            0                       # Table walker requests started/completed, data/inst (Count)
system.cpu.mmu.dtb_walker.requestOrigin::total            0                       # Table walker requests started/completed, data/inst (Count)
system.cpu.mmu.dtb_walker.power_state.pwrStateResidencyTicks::UNDEFINED 643486147416                       # Cumulative time (in ticks) in various power states (Tick)
system.cpu.mmu.itb.instHits                         0                       # Inst hits (Count)
system.cpu.mmu.itb.instMisses                       0                       # Inst misses (Count)
system.cpu.mmu.itb.inserts                          0                       # Number of times an entry is inserted into the TLB (Count)
system.cpu.mmu.itb.flushTlb                         4                       # Number of times complete TLB was flushed (Count)
system.cpu.mmu.itb.flushTlbMva                      0                       # Number of times TLB was flushed by MVA (Count)
system.cpu.mmu.itb.flushTlbMvaAsid                  0                       # Number of times TLB was flushed by MVA & ASID (Count)
system.cpu.mmu.itb.flushTlbAsid                     0                       # Number of times TLB was flushed by ASID (Count)
system.cpu.mmu.itb.flushedEntries                   0                       # Number of entries that have been flushed from TLB (Count)
system.cpu.mmu.itb.instAccesses                     0                       # Inst accesses (Count)
system.cpu.mmu.itb.hits                             0                       # Total TLB (inst and data) hits (Count)
system.cpu.mmu.itb.misses                           0                       # Total TLB (inst and data) misses (Count)
system.cpu.mmu.itb.accesses                         0                       # Total TLB (inst and data) accesses (Count)
system.cpu.mmu.itb_walker.walks                     0                       # Table walker walks requested (Count)
system.cpu.mmu.itb_walker.requestOrigin_Requested::Data            0                       # Table walker requests started/completed, data/inst (Count)
system.cpu.mmu.itb_walker.requestOrigin_Requested::Inst            0                       # Table walker requests started/completed, data/inst (Count)
system.cpu.mmu.itb_walker.requestOrigin_Requested::total            0                       # Table walker requests started/completed, data/inst (Count)
system.cpu.mmu.itb_walker.requestOrigin_Completed::Data            0                       # Table walker requests started/completed, data/inst (Count)
system.cpu.mmu.itb_walker.requestOrigin_Completed::Inst            0                       # Table walker requests started/completed, data/inst (Count)
system.cpu.mmu.itb_walker.requestOrigin_Completed::total            0                       # Table walker requests started/completed, data/inst (Count)
system.cpu.mmu.itb_walker.requestOrigin::total            0                       # Table walker requests started/completed, data/inst (Count)
system.cpu.mmu.itb_walker.power_state.pwrStateResidencyTicks::UNDEFINED 643486147416                       # Cumulative time (in ticks) in various power states (Tick)
system.cpu.mmu.l2_shared.instHits                   0                       # Inst hits (Count)
system.cpu.mmu.l2_shared.instMisses                 0                       # Inst misses (Count)
system.cpu.mmu.l2_shared.inserts                    0                       # Number of times an entry is inserted into the TLB (Count)
system.cpu.mmu.l2_shared.flushTlb                   4                       # Number of times complete TLB was flushed (Count)
system.cpu.mmu.l2_shared.flushTlbMva                0                       # Number of times TLB was flushed by MVA (Count)
system.cpu.mmu.l2_shared.flushTlbMvaAsid            0                       # Number of times TLB was flushed by MVA & ASID (Count)
system.cpu.mmu.l2_shared.flushTlbAsid               0                       # Number of times TLB was flushed by ASID (Count)
system.cpu.mmu.l2_shared.flushedEntries             0                       # Number of entries that have been flushed from TLB (Count)
system.cpu.mmu.l2_shared.instAccesses               0                       # Inst accesses (Count)
system.cpu.mmu.l2_shared.hits                       0                       # Total TLB (inst and data) hits (Count)
system.cpu.mmu.l2_shared.misses                     0                       # Total TLB (inst and data) misses (Count)
system.cpu.mmu.l2_shared.accesses                   0                       # Total TLB (inst and data) accesses (Count)
system.cpu.mmu.stage2_dtb.readHits                  0                       # Read hits (Count)
system.cpu.mmu.stage2_dtb.readMisses                0                       # Read misses (Count)
system.cpu.mmu.stage2_dtb.writeHits                 0                       # Write hits (Count)
system.cpu.mmu.stage2_dtb.writeMisses               0                       # Write misses (Count)
system.cpu.mmu.stage2_dtb.inserts                   0                       # Number of times an entry is inserted into the TLB (Count)
system.cpu.mmu.stage2_dtb.flushTlb                  4                       # Number of times complete TLB was flushed (Count)
system.cpu.mmu.stage2_dtb.flushTlbMva               0                       # Number of times TLB was flushed by MVA (Count)
system.cpu.mmu.stage2_dtb.flushTlbMvaAsid            0                       # Number of times TLB was flushed by MVA & ASID (Count)
system.cpu.mmu.stage2_dtb.flushTlbAsid              0                       # Number of times TLB was flushed by ASID (Count)
system.cpu.mmu.stage2_dtb.flushedEntries            0                       # Number of entries that have been flushed from TLB (Count)
system.cpu.mmu.stage2_dtb.readAccesses              0                       # Read accesses (Count)
system.cpu.mmu.stage2_dtb.writeAccesses             0                       # Write accesses (Count)
system.cpu.mmu.stage2_dtb.hits                      0                       # Total TLB (inst and data) hits (Count)
system.cpu.mmu.stage2_dtb.misses                    0                       # Total TLB (inst and data) misses (Count)
system.cpu.mmu.stage2_dtb.accesses                  0                       # Total TLB (inst and data) accesses (Count)
system.cpu.mmu.stage2_dtb_walker.walks              0                       # Table walker walks requested (Count)
system.cpu.mmu.stage2_dtb_walker.requestOrigin_Requested::Data            0                       # Table walker requests started/completed, data/inst (Count)
system.cpu.mmu.stage2_dtb_walker.requestOrigin_Requested::Inst            0                       # Table walker requests started/completed, data/inst (Count)
system.cpu.mmu.stage2_dtb_walker.requestOrigin_Requested::total            0                       # Table walker requests started/completed, data/inst (Count)
system.cpu.mmu.stage2_dtb_walker.requestOrigin_Completed::Data            0                       # Table walker requests started/completed, data/inst (Count)
system.cpu.mmu.stage2_dtb_walker.requestOrigin_Completed::Inst            0                       # Table walker requests started/completed, data/inst (Count)
system.cpu.mmu.stage2_dtb_walker.requestOrigin_Completed::total            0                       # Table walker requests started/completed, data/inst (Count)
system.cpu.mmu.stage2_dtb_walker.requestOrigin::total            0                       # Table walker requests started/completed, data/inst (Count)
system.cpu.mmu.stage2_dtb_walker.power_state.pwrStateResidencyTicks::UNDEFINED 643486147416                       # Cumulative time (in ticks) in various power states (Tick)
system.cpu.mmu.stage2_itb.instHits                  0                       # Inst hits (Count)
system.cpu.mmu.stage2_itb.instMisses                0                       # Inst misses (Count)
system.cpu.mmu.stage2_itb.inserts                   0                       # Number of times an entry is inserted into the TLB (Count)
system.cpu.mmu.stage2_itb.flushTlb                  4                       # Number of times complete TLB was flushed (Count)
system.cpu.mmu.stage2_itb.flushTlbMva               0                       # Number of times TLB was flushed by MVA (Count)
system.cpu.mmu.stage2_itb.flushTlbMvaAsid            0                       # Number of times TLB was flushed by MVA & ASID (Count)
system.cpu.mmu.stage2_itb.flushTlbAsid              0                       # Number of times TLB was flushed by ASID (Count)
system.cpu.mmu.stage2_itb.flushedEntries            0                       # Number of entries that have been flushed from TLB (Count)
system.cpu.mmu.stage2_itb.instAccesses              0                       # Inst accesses (Count)
system.cpu.mmu.stage2_itb.hits                      0                       # Total TLB (inst and data) hits (Count)
system.cpu.mmu.stage2_itb.misses                    0                       # Total TLB (inst and data) misses (Count)
system.cpu.mmu.stage2_itb.accesses                  0                       # Total TLB (inst and data) accesses (Count)
system.cpu.mmu.stage2_itb_walker.walks              0                       # Table walker walks requested (Count)
system.cpu.mmu.stage2_itb_walker.requestOrigin_Requested::Data            0                       # Table walker requests started/completed, data/inst (Count)
system.cpu.mmu.stage2_itb_walker.requestOrigin_Requested::Inst            0                       # Table walker requests started/completed, data/inst (Count)
system.cpu.mmu.stage2_itb_walker.requestOrigin_Requested::total            0                       # Table walker requests started/completed, data/inst (Count)
system.cpu.mmu.stage2_itb_walker.requestOrigin_Completed::Data            0                       # Table walker requests started/completed, data/inst (Count)
system.cpu.mmu.stage2_itb_walker.requestOrigin_Completed::Inst            0                       # Table walker requests started/completed, data/inst (Count)
system.cpu.mmu.stage2_itb_walker.requestOrigin_Completed::total            0                       # Table walker requests started/completed, data/inst (Count)
system.cpu.mmu.stage2_itb_walker.requestOrigin::total            0                       # Table walker requests started/completed, data/inst (Count)
system.cpu.mmu.stage2_itb_walker.power_state.pwrStateResidencyTicks::UNDEFINED 643486147416                       # Cumulative time (in ticks) in various power states (Tick)
system.cpu.power_state.pwrStateResidencyTicks::ON 643486147416                       # Cumulative time (in ticks) in various power states (Tick)
system.cpu.thread_0.numInsts               1000000000                       # Number of Instructions committed (Count)
system.cpu.thread_0.numOps                 1132164394                       # Number of Ops committed (Count)
system.cpu.thread_0.numMemRefs                      0                       # Number of Memory References (Count)
system.cpu.workload.numSyscalls                   994                       # Number of system calls (Count)
system.cpu_clk_domain.clock                       556                       # Clock period in ticks (Tick)
system.cpu_clk_domain.voltage_domain.voltage            1                       # Voltage in Volts (Volt)
system.l2bus.transDist::ReadResp                69441                       # Transaction distribution (Count)
system.l2bus.transDist::WritebackDirty         243771                       # Transaction distribution (Count)
system.l2bus.transDist::CleanEvict              62827                       # Transaction distribution (Count)
system.l2bus.transDist::ReadExReq              117987                       # Transaction distribution (Count)
system.l2bus.transDist::ReadExResp             117987                       # Transaction distribution (Count)
system.l2bus.transDist::ReadSharedReq           69441                       # Transaction distribution (Count)
system.l2bus.pktCount_system.cpu.icache.mem_side_port::system.l2cache.cpu_side_port         5903                       # Packet count per connected requestor and responder (Count)
system.l2bus.pktCount_system.cpu.dcache.mem_side_port::system.l2cache.cpu_side_port       555358                       # Packet count per connected requestor and responder (Count)
system.l2bus.pktCount::total                   561261                       # Packet count per connected requestor and responder (Count)
system.l2bus.pktSize_system.cpu.icache.mem_side_port::system.l2cache.cpu_side_port       136832                       # Cumulative packet size per connected requestor and responder (Byte)
system.l2bus.pktSize_system.cpu.dcache.mem_side_port::system.l2cache.cpu_side_port     21473216                       # Cumulative packet size per connected requestor and responder (Byte)
system.l2bus.pktSize::total                  21610048                       # Cumulative packet size per connected requestor and responder (Byte)
system.l2bus.snoops                            120193                       # Total snoops (Count)
system.l2bus.snoopTraffic                     5986688                       # Total snoop traffic (Byte)
system.l2bus.snoopFanout::samples              307621                       # Request fanout histogram (Count)
system.l2bus.snoopFanout::mean               0.002565                       # Request fanout histogram (Count)
system.l2bus.snoopFanout::stdev              0.050579                       # Request fanout histogram (Count)
system.l2bus.snoopFanout::underflows                0      0.00%      0.00% # Request fanout histogram (Count)
system.l2bus.snoopFanout::0                    306832     99.74%     99.74% # Request fanout histogram (Count)
system.l2bus.snoopFanout::1                       789      0.26%    100.00% # Request fanout histogram (Count)
system.l2bus.snoopFanout::2                         0      0.00%    100.00% # Request fanout histogram (Count)
system.l2bus.snoopFanout::overflows                 0      0.00%    100.00% # Request fanout histogram (Count)
system.l2bus.snoopFanout::min_value                 0                       # Request fanout histogram (Count)
system.l2bus.snoopFanout::max_value                 1                       # Request fanout histogram (Count)
system.l2bus.snoopFanout::total                307621                       # Request fanout histogram (Count)
system.l2bus.power_state.pwrStateResidencyTicks::UNDEFINED 643486147416                       # Cumulative time (in ticks) in various power states (Tick)
system.l2bus.reqLayer0.occupancy            431345672                       # Layer occupancy (ticks) (Tick)
system.l2bus.reqLayer0.utilization                0.0                       # Layer utilization (Ratio)
system.l2bus.respLayer0.occupancy             3208996                       # Layer occupancy (ticks) (Tick)
system.l2bus.respLayer0.utilization               0.0                       # Layer utilization (Ratio)
system.l2bus.respLayer1.occupancy           277953463                       # Layer occupancy (ticks) (Tick)
system.l2bus.respLayer1.utilization               0.0                       # Layer utilization (Ratio)
system.l2bus.snoop_filter.totRequests          373833                       # Total number of requests made to the snoop filter. (Count)
system.l2bus.snoop_filter.hitSingleRequests       186411                       # Number of requests hitting in the snoop filter with a single holder of the requested data. (Count)
system.l2bus.snoop_filter.hitMultiRequests          258                       # Number of requests hitting in the snoop filter with multiple (>1) holders of the requested data. (Count)
system.l2bus.snoop_filter.totSnoops               525                       # Total number of snoops made to the snoop filter. (Count)
system.l2bus.snoop_filter.hitSingleSnoops          525                       # Number of snoops hitting in the snoop filter with a single holder of the requested data. (Count)
system.l2bus.snoop_filter.hitMultiSnoops            0                       # Number of snoops hitting in the snoop filter with multiple (>1) holders of the requested data. (Count)
system.l2cache.demandHits::cpu.inst               793                       # number of demand (read+write) hits (Count)
system.l2cache.demandHits::cpu.data             33637                       # number of demand (read+write) hits (Count)
system.l2cache.demandHits::total                34430                       # number of demand (read+write) hits (Count)
system.l2cache.overallHits::cpu.inst              793                       # number of overall hits (Count)
system.l2cache.overallHits::cpu.data            33637                       # number of overall hits (Count)
system.l2cache.overallHits::total               34430                       # number of overall hits (Count)
system.l2cache.demandMisses::cpu.inst            1345                       # number of demand (read+write) misses (Count)
system.l2cache.demandMisses::cpu.data          151653                       # number of demand (read+write) misses (Count)
system.l2cache.demandMisses::total             152998                       # number of demand (read+write) misses (Count)
system.l2cache.overallMisses::cpu.inst           1345                       # number of overall misses (Count)
system.l2cache.overallMisses::cpu.data         151653                       # number of overall misses (Count)
system.l2cache.overallMisses::total            152998                       # number of overall misses (Count)
system.l2cache.demandMissLatency::cpu.inst     95072188                       # number of demand (read+write) miss ticks (Tick)
system.l2cache.demandMissLatency::cpu.data  12847089684                       # number of demand (read+write) miss ticks (Tick)
system.l2cache.demandMissLatency::total   12942161872                       # number of demand (read+write) miss ticks (Tick)
system.l2cache.overallMissLatency::cpu.inst     95072188                       # number of overall miss ticks (Tick)
system.l2cache.overallMissLatency::cpu.data  12847089684                       # number of overall miss ticks (Tick)
system.l2cache.overallMissLatency::total  12942161872                       # number of overall miss ticks (Tick)
system.l2cache.demandAccesses::cpu.inst          2138                       # number of demand (read+write) accesses (Count)
system.l2cache.demandAccesses::cpu.data        185290                       # number of demand (read+write) accesses (Count)
system.l2cache.demandAccesses::total           187428                       # number of demand (read+write) accesses (Count)
system.l2cache.overallAccesses::cpu.inst         2138                       # number of overall (read+write) accesses (Count)
system.l2cache.overallAccesses::cpu.data       185290                       # number of overall (read+write) accesses (Count)
system.l2cache.overallAccesses::total          187428                       # number of overall (read+write) accesses (Count)
system.l2cache.demandMissRate::cpu.inst      0.629093                       # miss rate for demand accesses (Ratio)
system.l2cache.demandMissRate::cpu.data      0.818463                       # miss rate for demand accesses (Ratio)
system.l2cache.demandMissRate::total         0.816303                       # miss rate for demand accesses (Ratio)
system.l2cache.overallMissRate::cpu.inst     0.629093                       # miss rate for overall accesses (Ratio)
system.l2cache.overallMissRate::cpu.data     0.818463                       # miss rate for overall accesses (Ratio)
system.l2cache.overallMissRate::total        0.816303                       # miss rate for overall accesses (Ratio)
system.l2cache.demandAvgMissLatency::cpu.inst 70685.641636                       # average overall miss latency in ticks ((Tick/Count))
system.l2cache.demandAvgMissLatency::cpu.data 84713.719373                       # average overall miss latency in ticks ((Tick/Count))
system.l2cache.demandAvgMissLatency::total 84590.399038                       # average overall miss latency in ticks ((Tick/Count))
system.l2cache.overallAvgMissLatency::cpu.inst 70685.641636                       # average overall miss latency ((Tick/Count))
system.l2cache.overallAvgMissLatency::cpu.data 84713.719373                       # average overall miss latency ((Tick/Count))
system.l2cache.overallAvgMissLatency::total 84590.399038                       # average overall miss latency ((Tick/Count))
system.l2cache.blockedCycles::no_mshrs              0                       # number of cycles access was blocked (Cycle)
system.l2cache.blockedCycles::no_targets            0                       # number of cycles access was blocked (Cycle)
system.l2cache.blockedCauses::no_mshrs              0                       # number of times access was blocked (Count)
system.l2cache.blockedCauses::no_targets            0                       # number of times access was blocked (Count)
system.l2cache.avgBlocked::no_mshrs               nan                       # average number of cycles each access was blocked ((Cycle/Count))
system.l2cache.avgBlocked::no_targets             nan                       # average number of cycles each access was blocked ((Cycle/Count))
system.l2cache.writebacks::writebacks           93542                       # number of writebacks (Count)
system.l2cache.writebacks::total                93542                       # number of writebacks (Count)
system.l2cache.demandMshrHits::cpu.inst             3                       # number of demand (read+write) MSHR hits (Count)
system.l2cache.demandMshrHits::cpu.data            34                       # number of demand (read+write) MSHR hits (Count)
system.l2cache.demandMshrHits::total               37                       # number of demand (read+write) MSHR hits (Count)
system.l2cache.overallMshrHits::cpu.inst            3                       # number of overall MSHR hits (Count)
system.l2cache.overallMshrHits::cpu.data           34                       # number of overall MSHR hits (Count)
system.l2cache.overallMshrHits::total              37                       # number of overall MSHR hits (Count)
system.l2cache.demandMshrMisses::cpu.inst         1342                       # number of demand (read+write) MSHR misses (Count)
system.l2cache.demandMshrMisses::cpu.data       151619                       # number of demand (read+write) MSHR misses (Count)
system.l2cache.demandMshrMisses::total         152961                       # number of demand (read+write) MSHR misses (Count)
system.l2cache.overallMshrMisses::cpu.inst         1342                       # number of overall MSHR misses (Count)
system.l2cache.overallMshrMisses::cpu.data       151619                       # number of overall MSHR misses (Count)
system.l2cache.overallMshrMisses::total        152961                       # number of overall MSHR misses (Count)
system.l2cache.demandMshrMissLatency::cpu.inst     81476448                       # number of demand (read+write) MSHR miss ticks (Tick)
system.l2cache.demandMshrMissLatency::cpu.data  11328444724                       # number of demand (read+write) MSHR miss ticks (Tick)
system.l2cache.demandMshrMissLatency::total  11409921172                       # number of demand (read+write) MSHR miss ticks (Tick)
system.l2cache.overallMshrMissLatency::cpu.inst     81476448                       # number of overall MSHR miss ticks (Tick)
system.l2cache.overallMshrMissLatency::cpu.data  11328444724                       # number of overall MSHR miss ticks (Tick)
system.l2cache.overallMshrMissLatency::total  11409921172                       # number of overall MSHR miss ticks (Tick)
system.l2cache.demandMshrMissRate::cpu.inst     0.627689                       # mshr miss ratio for demand accesses (Ratio)
system.l2cache.demandMshrMissRate::cpu.data     0.818279                       # mshr miss ratio for demand accesses (Ratio)
system.l2cache.demandMshrMissRate::total     0.816105                       # mshr miss ratio for demand accesses (Ratio)
system.l2cache.overallMshrMissRate::cpu.inst     0.627689                       # mshr miss ratio for overall accesses (Ratio)
system.l2cache.overallMshrMissRate::cpu.data     0.818279                       # mshr miss ratio for overall accesses (Ratio)
system.l2cache.overallMshrMissRate::total     0.816105                       # mshr miss ratio for overall accesses (Ratio)
system.l2cache.demandAvgMshrMissLatency::cpu.inst 60712.703428                       # average overall mshr miss latency ((Tick/Count))
system.l2cache.demandAvgMshrMissLatency::cpu.data 74716.524473                       # average overall mshr miss latency ((Tick/Count))
system.l2cache.demandAvgMshrMissLatency::total 74593.662254                       # average overall mshr miss latency ((Tick/Count))
system.l2cache.overallAvgMshrMissLatency::cpu.inst 60712.703428                       # average overall mshr miss latency ((Tick/Count))
system.l2cache.overallAvgMshrMissLatency::cpu.data 74716.524473                       # average overall mshr miss latency ((Tick/Count))
system.l2cache.overallAvgMshrMissLatency::total 74593.662254                       # average overall mshr miss latency ((Tick/Count))
system.l2cache.replacements                    120193                       # number of replacements (Count)
system.l2cache.CleanEvict.mshrMisses::writebacks            8                       # number of CleanEvict MSHR misses (Count)
system.l2cache.CleanEvict.mshrMisses::total            8                       # number of CleanEvict MSHR misses (Count)
system.l2cache.CleanEvict.mshrMissRate::writebacks          inf                       # mshr miss rate for CleanEvict accesses (Ratio)
system.l2cache.CleanEvict.mshrMissRate::total          inf                       # mshr miss rate for CleanEvict accesses (Ratio)
system.l2cache.ReadExReq.hits::cpu.data            53                       # number of ReadExReq hits (Count)
system.l2cache.ReadExReq.hits::total               53                       # number of ReadExReq hits (Count)
system.l2cache.ReadExReq.misses::cpu.data       117934                       # number of ReadExReq misses (Count)
system.l2cache.ReadExReq.misses::total         117934                       # number of ReadExReq misses (Count)
system.l2cache.ReadExReq.missLatency::cpu.data   9942211296                       # number of ReadExReq miss ticks (Tick)
system.l2cache.ReadExReq.missLatency::total   9942211296                       # number of ReadExReq miss ticks (Tick)
system.l2cache.ReadExReq.accesses::cpu.data       117987                       # number of ReadExReq accesses(hits+misses) (Count)
system.l2cache.ReadExReq.accesses::total       117987                       # number of ReadExReq accesses(hits+misses) (Count)
system.l2cache.ReadExReq.missRate::cpu.data     0.999551                       # miss rate for ReadExReq accesses (Ratio)
system.l2cache.ReadExReq.missRate::total     0.999551                       # miss rate for ReadExReq accesses (Ratio)
system.l2cache.ReadExReq.avgMissLatency::cpu.data 84303.180559                       # average ReadExReq miss latency ((Tick/Count))
system.l2cache.ReadExReq.avgMissLatency::total 84303.180559                       # average ReadExReq miss latency ((Tick/Count))
system.l2cache.ReadExReq.mshrMisses::cpu.data       117934                       # number of ReadExReq MSHR misses (Count)
system.l2cache.ReadExReq.mshrMisses::total       117934                       # number of ReadExReq MSHR misses (Count)
system.l2cache.ReadExReq.mshrMissLatency::cpu.data   8762871296                       # number of ReadExReq MSHR miss ticks (Tick)
system.l2cache.ReadExReq.mshrMissLatency::total   8762871296                       # number of ReadExReq MSHR miss ticks (Tick)
system.l2cache.ReadExReq.mshrMissRate::cpu.data     0.999551                       # mshr miss rate for ReadExReq accesses (Ratio)
system.l2cache.ReadExReq.mshrMissRate::total     0.999551                       # mshr miss rate for ReadExReq accesses (Ratio)
system.l2cache.ReadExReq.avgMshrMissLatency::cpu.data 74303.180559                       # average ReadExReq mshr miss latency ((Tick/Count))
system.l2cache.ReadExReq.avgMshrMissLatency::total 74303.180559                       # average ReadExReq mshr miss latency ((Tick/Count))
system.l2cache.ReadSharedReq.hits::cpu.inst          793                       # number of ReadSharedReq hits (Count)
system.l2cache.ReadSharedReq.hits::cpu.data        33584                       # number of ReadSharedReq hits (Count)
system.l2cache.ReadSharedReq.hits::total        34377                       # number of ReadSharedReq hits (Count)
system.l2cache.ReadSharedReq.misses::cpu.inst         1345                       # number of ReadSharedReq misses (Count)
system.l2cache.ReadSharedReq.misses::cpu.data        33719                       # number of ReadSharedReq misses (Count)
system.l2cache.ReadSharedReq.misses::total        35064                       # number of ReadSharedReq misses (Count)
system.l2cache.ReadSharedReq.missLatency::cpu.inst     95072188                       # number of ReadSharedReq miss ticks (Tick)
system.l2cache.ReadSharedReq.missLatency::cpu.data   2904878388                       # number of ReadSharedReq miss ticks (Tick)
system.l2cache.ReadSharedReq.missLatency::total   2999950576                       # number of ReadSharedReq miss ticks (Tick)
system.l2cache.ReadSharedReq.accesses::cpu.inst         2138                       # number of ReadSharedReq accesses(hits+misses) (Count)
system.l2cache.ReadSharedReq.accesses::cpu.data        67303                       # number of ReadSharedReq accesses(hits+misses) (Count)
system.l2cache.ReadSharedReq.accesses::total        69441                       # number of ReadSharedReq accesses(hits+misses) (Count)
system.l2cache.ReadSharedReq.missRate::cpu.inst     0.629093                       # miss rate for ReadSharedReq accesses (Ratio)
system.l2cache.ReadSharedReq.missRate::cpu.data     0.501003                       # miss rate for ReadSharedReq accesses (Ratio)
system.l2cache.ReadSharedReq.missRate::total     0.504947                       # miss rate for ReadSharedReq accesses (Ratio)
system.l2cache.ReadSharedReq.avgMissLatency::cpu.inst 70685.641636                       # average ReadSharedReq miss latency ((Tick/Count))
system.l2cache.ReadSharedReq.avgMissLatency::cpu.data 86149.600759                       # average ReadSharedReq miss latency ((Tick/Count))
system.l2cache.ReadSharedReq.avgMissLatency::total 85556.427561                       # average ReadSharedReq miss latency ((Tick/Count))
system.l2cache.ReadSharedReq.mshrHits::cpu.inst            3                       # number of ReadSharedReq MSHR hits (Count)
system.l2cache.ReadSharedReq.mshrHits::cpu.data           34                       # number of ReadSharedReq MSHR hits (Count)
system.l2cache.ReadSharedReq.mshrHits::total           37                       # number of ReadSharedReq MSHR hits (Count)
system.l2cache.ReadSharedReq.mshrMisses::cpu.inst         1342                       # number of ReadSharedReq MSHR misses (Count)
system.l2cache.ReadSharedReq.mshrMisses::cpu.data        33685                       # number of ReadSharedReq MSHR misses (Count)
system.l2cache.ReadSharedReq.mshrMisses::total        35027                       # number of ReadSharedReq MSHR misses (Count)
system.l2cache.ReadSharedReq.mshrMissLatency::cpu.inst     81476448                       # number of ReadSharedReq MSHR miss ticks (Tick)
system.l2cache.ReadSharedReq.mshrMissLatency::cpu.data   2565573428                       # number of ReadSharedReq MSHR miss ticks (Tick)
system.l2cache.ReadSharedReq.mshrMissLatency::total   2647049876                       # number of ReadSharedReq MSHR miss ticks (Tick)
system.l2cache.ReadSharedReq.mshrMissRate::cpu.inst     0.627689                       # mshr miss rate for ReadSharedReq accesses (Ratio)
system.l2cache.ReadSharedReq.mshrMissRate::cpu.data     0.500498                       # mshr miss rate for ReadSharedReq accesses (Ratio)
system.l2cache.ReadSharedReq.mshrMissRate::total     0.504414                       # mshr miss rate for ReadSharedReq accesses (Ratio)
system.l2cache.ReadSharedReq.avgMshrMissLatency::cpu.inst 60712.703428                       # average ReadSharedReq mshr miss latency ((Tick/Count))
system.l2cache.ReadSharedReq.avgMshrMissLatency::cpu.data 76163.676058                       # average ReadSharedReq mshr miss latency ((Tick/Count))
system.l2cache.ReadSharedReq.avgMshrMissLatency::total 75571.698290                       # average ReadSharedReq mshr miss latency ((Tick/Count))
system.l2cache.WritebackDirty.hits::writebacks       150229                       # number of WritebackDirty hits (Count)
system.l2cache.WritebackDirty.hits::total       150229                       # number of WritebackDirty hits (Count)
system.l2cache.WritebackDirty.accesses::writebacks       150229                       # number of WritebackDirty accesses(hits+misses) (Count)
system.l2cache.WritebackDirty.accesses::total       150229                       # number of WritebackDirty accesses(hits+misses) (Count)
system.l2cache.power_state.pwrStateResidencyTicks::UNDEFINED 643486147416                       # Cumulative time (in ticks) in various power states (Tick)
system.l2cache.tags.tagsInUse            29073.910357                       # Average ticks per tags in use ((Tick/Count))
system.l2cache.tags.totalRefs                  373530                       # Total number of references to valid blocks. (Count)
system.l2cache.tags.sampledRefs                152961                       # Sample count of references to valid blocks. (Count)
system.l2cache.tags.avgRefs                  2.441995                       # Average number of references to valid blocks. ((Count/Count))
system.l2cache.tags.warmupTick                  71000                       # The tick when the warmup percentage was hit. (Tick)
system.l2cache.tags.occupancies::cpu.inst   335.798735                       # Average occupied blocks per tick, per requestor ((Count/Tick))
system.l2cache.tags.occupancies::cpu.data 28738.111622                       # Average occupied blocks per tick, per requestor ((Count/Tick))
system.l2cache.tags.avgOccs::cpu.inst        0.010248                       # Average percentage of cache occupancy ((Ratio/Tick))
system.l2cache.tags.avgOccs::cpu.data        0.877018                       # Average percentage of cache occupancy ((Ratio/Tick))
system.l2cache.tags.avgOccs::total           0.887265                       # Average percentage of cache occupancy ((Ratio/Tick))
system.l2cache.tags.occupanciesTaskId::1024        32768                       # Occupied blocks per task id (Count)
system.l2cache.tags.ageTaskId_1024::0               1                       # Occupied blocks per task id, per block age (Count)
system.l2cache.tags.ageTaskId_1024::1               8                       # Occupied blocks per task id, per block age (Count)
system.l2cache.tags.ageTaskId_1024::2              73                       # Occupied blocks per task id, per block age (Count)
system.l2cache.tags.ageTaskId_1024::3             728                       # Occupied blocks per task id, per block age (Count)
system.l2cache.tags.ageTaskId_1024::4           31958                       # Occupied blocks per task id, per block age (Count)
system.l2cache.tags.ratioOccsTaskId::1024            1                       # Ratio of occupied blocks and all blocks, per task id (Ratio)
system.l2cache.tags.tagAccesses               3141561                       # Number of tag accesses (Count)
system.l2cache.tags.dataAccesses              3141561                       # Number of data accesses (Count)
system.l2cache.tags.power_state.pwrStateResidencyTicks::UNDEFINED 643486147416                       # Cumulative time (in ticks) in various power states (Tick)
system.mem_ctrl.avgPriority_writebacks::samples     93542.00                       # Average QoS priority value for accepted requests (Count)
system.mem_ctrl.avgPriority_cpu.inst::samples      1342.00                       # Average QoS priority value for accepted requests (Count)
system.mem_ctrl.avgPriority_cpu.data::samples    151563.00                       # Average QoS priority value for accepted requests (Count)
system.mem_ctrl.priorityMinLatency       0.000000017492                       # per QoS priority minimum request to response latency (Second)
system.mem_ctrl.priorityMaxLatency       0.169662671652                       # per QoS priority maximum request to response latency (Second)
system.mem_ctrl.numReadWriteTurnArounds          5499                       # Number of turnarounds from READ to WRITE (Count)
system.mem_ctrl.numWriteReadTurnArounds          5499                       # Number of turnarounds from WRITE to READ (Count)
system.mem_ctrl.numStayReadState               561393                       # Number of times bus staying in READ state (Count)
system.mem_ctrl.numStayWriteState               88100                       # Number of times bus staying in WRITE state (Count)
system.mem_ctrl.readReqs                       152961                       # Number of read requests accepted (Count)
system.mem_ctrl.writeReqs                       93542                       # Number of write requests accepted (Count)
system.mem_ctrl.readBursts                     152961                       # Number of controller read bursts, including those serviced by the write queue (Count)
system.mem_ctrl.writeBursts                     93542                       # Number of controller write bursts, including those merged in the write queue (Count)
system.mem_ctrl.servicedByWrQ                      56                       # Number of controller read bursts serviced by the write queue (Count)
system.mem_ctrl.mergedWrBursts                      0                       # Number of controller write bursts merged with an existing one (Count)
system.mem_ctrl.neitherReadNorWriteReqs             0                       # Number of requests that are neither read nor write (Count)
system.mem_ctrl.avgRdQLen                        1.00                       # Average read queue length when enqueuing ((Count/Tick))
system.mem_ctrl.avgWrQLen                       42.90                       # Average write queue length when enqueuing ((Count/Tick))
system.mem_ctrl.numRdRetry                          0                       # Number of times read queue was full causing retry (Count)
system.mem_ctrl.numWrRetry                          0                       # Number of times write queue was full causing retry (Count)
system.mem_ctrl.readPktSize::0                      0                       # Read request sizes (log2) (Count)
system.mem_ctrl.readPktSize::1                      0                       # Read request sizes (log2) (Count)
[...]
system.mem_ctrl.dram.perBankRdBursts::9          4810                       # Per bank write bursts (Count)
system.mem_ctrl.dram.perBankRdBursts::10         4800                       # Per bank write bursts (Count)
system.mem_ctrl.dram.perBankRdBursts::11         4760                       # Per bank write bursts (Count)
system.mem_ctrl.dram.perBankRdBursts::12         4756                       # Per bank write bursts (Count)
system.mem_ctrl.dram.perBankRdBursts::13         4744                       # Per bank write bursts (Count)
system.mem_ctrl.dram.perBankRdBursts::14         4768                       # Per bank write bursts (Count)
system.mem_ctrl.dram.perBankRdBursts::15         4817                       # Per bank write bursts (Count)
system.mem_ctrl.dram.perBankRdBursts::16         4772                       # Per bank write bursts (Count)
system.mem_ctrl.dram.perBankRdBursts::17         4770                       # Per bank write bursts (Count)
system.mem_ctrl.dram.perBankRdBursts::18         4809                       # Per bank write bursts (Count)
system.mem_ctrl.dram.perBankRdBursts::19         4749                       # Per bank write bursts (Count)
system.mem_ctrl.dram.perBankRdBursts::20         4753                       # Per bank write bursts (Count)
system.mem_ctrl.dram.perBankRdBursts::21         4807                       # Per bank write bursts (Count)
system.mem_ctrl.dram.perBankRdBursts::22         4768                       # Per bank write bursts (Count)
system.mem_ctrl.dram.perBankRdBursts::23         4757                       # Per bank write bursts (Count)
system.mem_ctrl.dram.perBankRdBursts::24         4741                       # Per bank write bursts (Count)
system.mem_ctrl.dram.perBankRdBursts::25         4815                       # Per bank write bursts (Count)
system.mem_ctrl.dram.perBankRdBursts::26         4863                       # Per bank write bursts (Count)
system.mem_ctrl.dram.perBankRdBursts::27         4754                       # Per bank write bursts (Count)
system.mem_ctrl.dram.perBankRdBursts::28         4721                       # Per bank write bursts (Count)
system.mem_ctrl.dram.perBankRdBursts::29         4699                       # Per bank write bursts (Count)
system.mem_ctrl.dram.perBankRdBursts::30         4737                       # Per bank write bursts (Count)
system.mem_ctrl.dram.perBankRdBursts::31         4729                       # Per bank write bursts (Count)
system.mem_ctrl.dram.perBankWrBursts::0          2889                       # Per bank write bursts (Count)
system.mem_ctrl.dram.perBankWrBursts::1          2855                       # Per bank write bursts (Count)
system.mem_ctrl.dram.perBankWrBursts::2          2945                       # Per bank write bursts (Count)
system.mem_ctrl.dram.perBankWrBursts::3          2818                       # Per bank write bursts (Count)
system.mem_ctrl.dram.perBankWrBursts::4          2819                       # Per bank write bursts (Count)
system.mem_ctrl.dram.perBankWrBursts::5          2944                       # Per bank write bursts (Count)
system.mem_ctrl.dram.perBankWrBursts::6          2944                       # Per bank write bursts (Count)
system.mem_ctrl.dram.perBankWrBursts::7          2944                       # Per bank write bursts (Count)
system.mem_ctrl.dram.perBankWrBursts::8          2944                       # Per bank write bursts (Count)
system.mem_ctrl.dram.perBankWrBursts::9          2944                       # Per bank write bursts (Count)
system.mem_ctrl.dram.perBankWrBursts::10         2944                       # Per bank write bursts (Count)
system.mem_ctrl.dram.perBankWrBursts::11         2944                       # Per bank write bursts (Count)
system.mem_ctrl.dram.perBankWrBursts::12         2944                       # Per bank write bursts (Count)
system.mem_ctrl.dram.perBankWrBursts::13         2944                       # Per bank write bursts (Count)
system.mem_ctrl.dram.perBankWrBursts::14         2944                       # Per bank write bursts (Count)
system.mem_ctrl.dram.perBankWrBursts::15         2944                       # Per bank write bursts (Count)
system.mem_ctrl.dram.perBankWrBursts::16         2944                       # Per bank write bursts (Count)
system.mem_ctrl.dram.perBankWrBursts::17         2944                       # Per bank write bursts (Count)
system.mem_ctrl.dram.perBankWrBursts::18         2944                       # Per bank write bursts (Count)
system.mem_ctrl.dram.perBankWrBursts::19         2941                       # Per bank write bursts (Count)
system.mem_ctrl.dram.perBankWrBursts::20         2944                       # Per bank write bursts (Count)
system.mem_ctrl.dram.perBankWrBursts::21         2944                       # Per bank write bursts (Count)
system.mem_ctrl.dram.perBankWrBursts::22         2944                       # Per bank write bursts (Count)
system.mem_ctrl.dram.perBankWrBursts::23         2944                       # Per bank write bursts (Count)
system.mem_ctrl.dram.perBankWrBursts::24         2944                       # Per bank write bursts (Count)
system.mem_ctrl.dram.perBankWrBursts::25         2944                       # Per bank write bursts (Count)
system.mem_ctrl.dram.perBankWrBursts::26         2970                       # Per bank write bursts (Count)
system.mem_ctrl.dram.perBankWrBursts::27         2948                       # Per bank write bursts (Count)
system.mem_ctrl.dram.perBankWrBursts::28         2845                       # Per bank write bursts (Count)
system.mem_ctrl.dram.perBankWrBursts::29         2858                       # Per bank write bursts (Count)
system.mem_ctrl.dram.perBankWrBursts::30         2891                       # Per bank write bursts (Count)
system.mem_ctrl.dram.perBankWrBursts::31         2829                       # Per bank write bursts (Count)
system.mem_ctrl.dram.totQLat               3164850730                       # Total ticks spent queuing (Tick)
system.mem_ctrl.dram.totBusLat              509479460                       # Total ticks spent in databus transfers (Tick)
system.mem_ctrl.dram.totMemAccLat          5839464990                       # Total ticks spent from burst creation until serviced by the DRAM (Tick)
system.mem_ctrl.dram.avgQLat                 20698.15                       # Average queueing delay per DRAM burst ((Tick/Count))
system.mem_ctrl.dram.avgBusLat                3332.00                       # Average bus latency per DRAM burst ((Tick/Count))
system.mem_ctrl.dram.avgMemAccLat            38190.15                       # Average memory access latency per DRAM burst ((Tick/Count))
system.mem_ctrl.dram.readRowHits                59746                       # Number of row buffer hits during reads (Count)
system.mem_ctrl.dram.writeRowHits               82975                       # Number of row buffer hits during writes (Count)
system.mem_ctrl.dram.readRowHitRate             39.07                       # Row buffer hit rate for reads (Ratio)
system.mem_ctrl.dram.writeRowHitRate            88.75                       # Row buffer hit rate for writes (Ratio)
system.mem_ctrl.dram.bytesPerActivate::samples       103671                       # Bytes accessed per row activation (Byte)
system.mem_ctrl.dram.bytesPerActivate::mean   152.107031                       # Bytes accessed per row activation (Byte)
system.mem_ctrl.dram.bytesPerActivate::gmean    90.212401                       # Bytes accessed per row activation (Byte)
system.mem_ctrl.dram.bytesPerActivate::stdev   230.443360                       # Bytes accessed per row activation (Byte)
system.mem_ctrl.dram.bytesPerActivate::0-127        86518     83.45%     83.45% # Bytes accessed per row activation (Byte)
system.mem_ctrl.dram.bytesPerActivate::128-255         2260      2.18%     85.63% # Bytes accessed per row activation (Byte)
system.mem_ctrl.dram.bytesPerActivate::256-383         1014      0.98%     86.61% # Bytes accessed per row activation (Byte)
system.mem_ctrl.dram.bytesPerActivate::384-511         2392      2.31%     88.92% # Bytes accessed per row activation (Byte)
system.mem_ctrl.dram.bytesPerActivate::512-639         4637      4.47%     93.39% # Bytes accessed per row activation (Byte)
system.mem_ctrl.dram.bytesPerActivate::640-767         1749      1.69%     95.08% # Bytes accessed per row activation (Byte)
system.mem_ctrl.dram.bytesPerActivate::768-895          774      0.75%     95.83% # Bytes accessed per row activation (Byte)
system.mem_ctrl.dram.bytesPerActivate::896-1023          788      0.76%     96.59% # Bytes accessed per row activation (Byte)
system.mem_ctrl.dram.bytesPerActivate::1024-1151         3539      3.41%    100.00% # Bytes accessed per row activation (Byte)
system.mem_ctrl.dram.bytesPerActivate::total       103671                       # Bytes accessed per row activation (Byte)
system.mem_ctrl.dram.bytesRead                9785920                       # Total bytes read (Byte)
system.mem_ctrl.dram.bytesWritten             5983232                       # Total bytes written (Byte)
system.mem_ctrl.dram.avgRdBW                15.207662                       # Average DRAM read bandwidth in MiBytes/s ((Byte/Second))
system.mem_ctrl.dram.avgWrBW                 9.298152                       # Average DRAM write bandwidth in MiBytes/s ((Byte/Second))
system.mem_ctrl.dram.peakBW                  19207.00                       # Theoretical peak bandwidth in MiByte/s ((Byte/Second))
system.mem_ctrl.dram.busUtil                     0.13                       # Data bus utilization in percentage (Ratio)
system.mem_ctrl.dram.busUtilRead                 0.08                       # Data bus utilization in percentage for reads (Ratio)
system.mem_ctrl.dram.busUtilWrite                0.05                       # Data bus utilization in percentage for writes (Ratio)
system.mem_ctrl.dram.pageHitRate                57.92                       # Row buffer hit rate, read and write combined (Ratio)
system.mem_ctrl.dram.power_state.pwrStateResidencyTicks::UNDEFINED 643486147416                       # Cumulative time (in ticks) in various power states (Tick)
system.mem_ctrl.dram.rank0.actEnergy     160247715.264015                       # Energy for activate commands per rank (pJ) (Joule)
system.mem_ctrl.dram.rank0.preEnergy     213047282.985495                       # Energy for precharge commands per rank (pJ) (Joule)
system.mem_ctrl.dram.rank0.readEnergy    322460452.204759                       # Energy for read commands per rank (pJ) (Joule)
system.mem_ctrl.dram.rank0.writeEnergy   175559348.160003                       # Energy for write commands per rank (pJ) (Joule)
system.mem_ctrl.dram.rank0.refreshEnergy 114498690132.676208                       # Energy for refresh commands per rank (pJ) (Joule)
system.mem_ctrl.dram.rank0.actBackEnergy 113067618710.485809                       # Energy for active background per rank (pJ) (Joule)
system.mem_ctrl.dram.rank0.preBackEnergy 333190942738.909241                       # Energy for precharge background per rank (pJ) (Joule)
system.mem_ctrl.dram.rank0.actPowerDownEnergy            0                       # Energy for active power-down per rank (pJ) (Joule)
system.mem_ctrl.dram.rank0.prePowerDownEnergy            0                       # Energy for precharge power-down per rank (pJ) (Joule)
system.mem_ctrl.dram.rank0.selfRefreshEnergy            0                       # Energy for self refresh per rank (pJ) (Joule)
system.mem_ctrl.dram.rank0.totalEnergy   561628566380.751465                       # Total energy per rank (pJ) (Joule)
system.mem_ctrl.dram.rank0.averagePower    872.790453                       # Core power per rank (mW) (Watt)
system.mem_ctrl.dram.rank0.totalIdleTime            0                       # Total Idle time Per DRAM Rank (Tick)
system.mem_ctrl.dram.rank0.pwrStateTime::IDLE 508804720516                       # Time in different power states (Tick)
system.mem_ctrl.dram.rank0.pwrStateTime::REF  28926800000                       # Time in different power states (Tick)
system.mem_ctrl.dram.rank0.pwrStateTime::SREF            0                       # Time in different power states (Tick)
system.mem_ctrl.dram.rank0.pwrStateTime::PRE_PDN            0                       # Time in different power states (Tick)
system.mem_ctrl.dram.rank0.pwrStateTime::ACT 105754626900                       # Time in different power states (Tick)
system.mem_ctrl.dram.rank0.pwrStateTime::ACT_PDN            0                       # Time in different power states (Tick)
system.mem_ctrl.dram.rank1.actEnergy     163079542.080016                       # Energy for activate commands per rank (pJ) (Joule)
system.mem_ctrl.dram.rank1.preEnergy     216808014.091094                       # Energy for precharge commands per rank (pJ) (Joule)
system.mem_ctrl.dram.rank1.readEnergy    320706418.099158                       # Energy for read commands per rank (pJ) (Joule)
system.mem_ctrl.dram.rank1.writeEnergy   175814925.888003                       # Energy for write commands per rank (pJ) (Joule)
system.mem_ctrl.dram.rank1.refreshEnergy 114498690132.676208                       # Energy for refresh commands per rank (pJ) (Joule)
system.mem_ctrl.dram.rank1.actBackEnergy 118573417621.645828                       # Energy for active background per rank (pJ) (Joule)
system.mem_ctrl.dram.rank1.preBackEnergy 328960498377.817871                       # Energy for precharge background per rank (pJ) (Joule)
system.mem_ctrl.dram.rank1.actPowerDownEnergy            0                       # Energy for active power-down per rank (pJ) (Joule)
system.mem_ctrl.dram.rank1.prePowerDownEnergy            0                       # Energy for precharge power-down per rank (pJ) (Joule)
system.mem_ctrl.dram.rank1.selfRefreshEnergy            0                       # Energy for self refresh per rank (pJ) (Joule)
system.mem_ctrl.dram.rank1.totalEnergy   562909015032.252808                       # Total energy per rank (pJ) (Joule)
system.mem_ctrl.dram.rank1.averagePower    874.780315                       # Core power per rank (mW) (Watt)
system.mem_ctrl.dram.rank1.totalIdleTime            0                       # Total Idle time Per DRAM Rank (Tick)
system.mem_ctrl.dram.rank1.pwrStateTime::IDLE 502311336358                       # Time in different power states (Tick)
system.mem_ctrl.dram.rank1.pwrStateTime::REF  28926800000                       # Time in different power states (Tick)
system.mem_ctrl.dram.rank1.pwrStateTime::SREF            0                       # Time in different power states (Tick)
system.mem_ctrl.dram.rank1.pwrStateTime::PRE_PDN            0                       # Time in different power states (Tick)
system.mem_ctrl.dram.rank1.pwrStateTime::ACT 112248011058                       # Time in different power states (Tick)
system.mem_ctrl.dram.rank1.pwrStateTime::ACT_PDN            0                       # Time in different power states (Tick)
system.mem_ctrl.power_state.pwrStateResidencyTicks::UNDEFINED 643486147416                       # Cumulative time (in ticks) in various power states (Tick)
system.membus.transDist::ReadResp               35027                       # Transaction distribution (Count)
system.membus.transDist::WritebackDirty         93542                       # Transaction distribution (Count)
system.membus.transDist::CleanEvict             26134                       # Transaction distribution (Count)
system.membus.transDist::ReadExReq             117934                       # Transaction distribution (Count)
system.membus.transDist::ReadExResp            117934                       # Transaction distribution (Count)
system.membus.transDist::ReadSharedReq          35027                       # Transaction distribution (Count)
system.membus.pktCount_system.l2cache.mem_side_port::system.mem_ctrl.port       425598                       # Packet count per connected requestor and responder (Count)
system.membus.pktCount::total                  425598                       # Packet count per connected requestor and responder (Count)
system.membus.pktSize_system.l2cache.mem_side_port::system.mem_ctrl.port     15776192                       # Cumulative packet size per connected requestor and responder (Byte)
system.membus.pktSize::total                 15776192                       # Cumulative packet size per connected requestor and responder (Byte)
system.membus.snoops                                0                       # Total snoops (Count)
system.membus.snoopTraffic                          0                       # Total snoop traffic (Byte)
system.membus.snoopFanout::samples             152961                       # Request fanout histogram (Count)
system.membus.snoopFanout::mean                     0                       # Request fanout histogram (Count)
system.membus.snoopFanout::stdev                    0                       # Request fanout histogram (Count)
system.membus.snoopFanout::underflows               0      0.00%      0.00% # Request fanout histogram (Count)
system.membus.snoopFanout::0                   152961    100.00%    100.00% # Request fanout histogram (Count)
system.membus.snoopFanout::1                        0      0.00%    100.00% # Request fanout histogram (Count)
system.membus.snoopFanout::overflows                0      0.00%    100.00% # Request fanout histogram (Count)
system.membus.snoopFanout::min_value                0                       # Request fanout histogram (Count)
system.membus.snoopFanout::max_value                0                       # Request fanout histogram (Count)
system.membus.snoopFanout::total               152961                       # Request fanout histogram (Count)
system.membus.power_state.pwrStateResidencyTicks::UNDEFINED 643486147416                       # Cumulative time (in ticks) in various power states (Tick)
system.membus.reqLayer0.occupancy           361062116                       # Layer occupancy (ticks) (Tick)
system.membus.reqLayer0.utilization               0.0                       # Layer utilization (Ratio)
system.membus.respLayer0.occupancy          409257510                       # Layer occupancy (ticks) (Tick)
system.membus.respLayer0.utilization              0.0                       # Layer utilization (Ratio)
system.membus.snoop_filter.totRequests         272637                       # Total number of requests made to the snoop filter. (Count)
system.membus.snoop_filter.hitSingleRequests       119693                       # Number of requests hitting in the snoop filter with a single holder of the requested data. (Count)
system.membus.snoop_filter.hitMultiRequests            0                       # Number of requests hitting in the snoop filter with multiple (>1) holders of the requested data. (Count)
system.membus.snoop_filter.totSnoops                0                       # Total number of snoops made to the snoop filter. (Count)
system.membus.snoop_filter.hitSingleSnoops            0                       # Number of snoops hitting in the snoop filter with a single holder of the requested data. (Count)
system.membus.snoop_filter.hitMultiSnoops            0                       # Number of snoops hitting in the snoop filter with multiple (>1) holders of the requested data. (Count)
system.workload.inst.arm                            0                       # number of arm instructions executed (Count)
system.workload.inst.quiesce                        0                       # number of quiesce instructions executed (Count)
system.cpu.idleCycles                        41181584                       # Total number of cycles that the object has spent stopped (Unspecified)
system.cpu.tickCycles                      1116167602                       # Number of cycles that the object actually ticked (Unspecified)

---------- End Simulation Statistics   ----------
