
---------- Begin Simulation Statistics ----------
simSeconds                                   1.188894                       # Number of seconds simulated (Second)
simTicks                                 1188894266307                       # Number of ticks simulated (Tick)
finalTick                                1188894266307                       # Number of ticks from beginning of simulation (restored from checkpoints and never reset) (Tick)
simFreq                                  1000000000000                       # The number of ticks per simulated second ((Tick/Second))
hostSeconds                                   4680.04                       # Real time elapsed on the host (Second)
hostTickRate                                254034899                       # The number of ticks simulated per host second (ticks/s) ((Tick/Second))
hostMemory                                    2296664                       # Number of bytes of host memory used (Byte)
simInsts                                   1000000000                       # Number of instructions simulated (Count)
simOps                                     1160112256                       # Number of ops (including micro ops) simulated (Count)
hostInstRate                                   213673                       # Simulator instruction rate (inst/s) ((Count/Second))
hostOpRate                                     247885                       # Simulator op (including micro ops) rate (op/s) ((Count/Second))
system.clk_domain.clock                           500                       # Clock period in ticks (Tick)
system.clk_domain.voltage_domain.voltage            1                       # Voltage in Volts (Volt)
system.cpu.numCycles                        713193922                       # Number of cpu cycles simulated (Cycle)
system.cpu.numWorkItemsStarted                      0                       # Number of work items this cpu started (Count)
system.cpu.numWorkItemsCompleted                    0                       # Number of work items this cpu completed (Count)
system.cpu.instsAdded                      1617679982                       # Number of instructions added to the IQ (excludes non-spec) (Count)
system.cpu.nonSpecInstsAdded                     6702                       # Number of non-speculative instructions added to the IQ (Count)
system.cpu.instsIssued                     1438538820                       # Number of instructions issued (Count)
system.cpu.squashedInstsIssued                1327623                       # Number of squashed instructions issued (Count)
system.cpu.squashedInstsExamined            457574323                       # Number of squashed instructions iterated over during squash; mainly for profiling (Count)
system.cpu.squashedOperandsExamined        1202524999                       # Number of squashed operands that are examined and possibly removed from graph (Count)
system.cpu.squashedNonSpecRemoved                6163                       # Number of squashed non-spec instructions that were removed (Count)
system.cpu.numIssuedDist::samples           713186112                       # Number of insts issued each cycle (Count)
system.cpu.numIssuedDist::mean               2.017059                       # Number of insts issued each cycle (Count)
system.cpu.numIssuedDist::stdev              2.059588                       # Number of insts issued each cycle (Count)
system.cpu.numIssuedDist::underflows                0      0.00%      0.00% # Number of insts issued each cycle (Count)
system.cpu.numIssuedDist::0                 253634557     35.56%     35.56% # Number of insts issued each cycle (Count)
system.cpu.numIssuedDist::1                 100952850     14.16%     49.72% # Number of insts issued each cycle (Count)
system.cpu.numIssuedDist::2                  94866061     13.30%     63.02% # Number of insts issued each cycle (Count)
system.cpu.numIssuedDist::3                  80377685     11.27%     74.29% # Number of insts issued each cycle (Count)
system.cpu.numIssuedDist::4                  89551020     12.56%     86.85% # Number of insts issued each cycle (Count)
system.cpu.numIssuedDist::5                  41769811      5.86%     92.70% # Number of insts issued each cycle (Count)
system.cpu.numIssuedDist::6                  32451051      4.55%     97.25% # Number of insts issued each cycle (Count)
system.cpu.numIssuedDist::7                  11703264      1.64%     98.90% # Number of insts issued each cycle (Count)
system.cpu.numIssuedDist::8                   7879813      1.10%    100.00% # Number of insts issued each cycle (Count)
system.cpu.numIssuedDist::overflows                 0      0.00%    100.00% # Number of insts issued each cycle (Count)
system.cpu.numIssuedDist::min_value                 0                       # Number of insts issued each cycle (Count)
system.cpu.numIssuedDist::max_value                 8                       # Number of insts issued each cycle (Count)
system.cpu.numIssuedDist::total             713186112                       # Number of insts issued each cycle (Count)
system.cpu.statFuBusy::No_OpClass                   0      0.00%      0.00% # attempts to use FU when none available (Count)
system.cpu.statFuBusy::IntAlu                 2626079      5.35%      5.35% # attempts to use FU when none available (Count)
system.cpu.statFuBusy::IntMult                      0      0.00%      5.35% # attempts to use FU when none available (Count)
system.cpu.statFuBusy::IntDiv                       0      0.00%      5.35% # attempts to use FU when none available (Count)
system.cpu.statFuBusy::FloatAdd                     0      0.00%      5.35% # attempts to use FU when none available (Count)
system.cpu.statFuBusy::FloatCmp                     0      0.00%      5.35% # attempts to use FU when none available (Count)
system.cpu.statFuBusy::FloatCvt                     0      0.00%      5.35% # attempts to use FU when none available (Count)
system.cpu.statFuBusy::FloatMult                    0      0.00%      5.35% # attempts to use FU when none available (Count)
system.cpu.statFuBusy::FloatMultAcc                 0      0.00%      5.35% # attempts to use FU when none available (Count)
system.cpu.statFuBusy::FloatDiv                     0      0.00%      5.35% # attempts to use FU when none available (Count)
system.cpu.statFuBusy::FloatMisc                    0      0.00%      5.35% # attempts to use FU when none available (Count)
system.cpu.statFuBusy::FloatSqrt                    0      0.00%      5.35% # attempts to use FU when none available (Count)
system.cpu.statFuBusy::SimdAdd                      0      0.00%      5.35% # attempts to use FU when none available (Count)
system.cpu.statFuBusy::SimdAddAcc                   0      0.00%      5.35% # attempts to use FU when none available (Count)
system.cpu.statFuBusy::SimdAlu                      0      0.00%      5.35% # attempts to use FU when none available (Count)
system.cpu.statFuBusy::SimdCmp                      0      0.00%      5.35% # attempts to use FU when none available (Count)
system.cpu.statFuBusy::SimdCvt                      0      0.00%      5.35% # attempts to use FU when none available (Count)
system.cpu.statFuBusy::SimdMisc                     0      0.00%      5.35% # attempts to use FU when none available (Count)
system.cpu.statFuBusy::SimdMult                     0      0.00%      5.35% # attempts to use FU when none available (Count)
system.cpu.statFuBusy::SimdMultAcc                  0      0.00%      5.35% # attempts to use FU when none available (Count)
system.cpu.statFuBusy::SimdShift                    0      0.00%      5.35% # attempts to use FU when none available (Count)
system.cpu.statFuBusy::SimdShiftAcc                 0      0.00%      5.35% # attempts to use FU when none available (Count)
system.cpu.statFuBusy::SimdDiv                      0      0.00%      5.35% # attempts to use FU when none available (Count)
system.cpu.statFuBusy::SimdSqrt                     0      0.00%      5.35% # attempts to use FU when none available (Count)
system.cpu.statFuBusy::SimdFloatAdd                 0      0.00%      5.35% # attempts to use FU when none available (Count)
system.cpu.statFuBusy::SimdFloatAlu                 0      0.00%      5.35% # attempts to use FU when none available (Count)
system.cpu.statFuBusy::SimdFloatCmp                 0      0.00%      5.35% # attempts to use FU when none available (Count)
system.cpu.statFuBusy::SimdFloatCvt                 0      0.00%      5.35% # attempts to use FU when none available (Count)
system.cpu.statFuBusy::SimdFloatDiv                 0      0.00%      5.35% # attempts to use FU when none available (Count)
system.cpu.statFuBusy::SimdFloatMisc                0      0.00%      5.35% # attempts to use FU when none available (Count)
system.cpu.statFuBusy::SimdFloatMult                0      0.00%      5.35% # attempts to use FU when none available (Count)
system.cpu.statFuBusy::SimdFloatMultAcc             0      0.00%      5.35% # attempts to use FU when none available (Count)
system.cpu.statFuBusy::SimdFloatSqrt                0      0.00%      5.35% # attempts to use FU when none available (Count)
system.cpu.statFuBusy::SimdReduceAdd                0      0.00%      5.35% # attempts to use FU when none available (Count)
system.cpu.statFuBusy::SimdReduceAlu                0      0.00%      5.35% # attempts to use FU when none available (Count)
system.cpu.statFuBusy::SimdReduceCmp                0      0.00%      5.35% # attempts to use FU when none available (Count)
system.cpu.statFuBusy::SimdFloatReduceAdd            0      0.00%      5.35% # attempts to use FU when none available (Count)
system.cpu.statFuBusy::SimdFloatReduceCmp            0      0.00%      5.35% # attempts to use FU when none available (Count)
system.cpu.statFuBusy::SimdAes                      0      0.00%      5.35% # attempts to use FU when none available (Count)
system.cpu.statFuBusy::SimdAesMix                   0      0.00%      5.35% # attempts to use FU when none available (Count)
system.cpu.statFuBusy::SimdSha1Hash                 0      0.00%      5.35% # attempts to use FU when none available (Count)
system.cpu.statFuBusy::SimdSha1Hash2                0      0.00%      5.35% # attempts to use FU when none available (Count)
system.cpu.statFuBusy::SimdSha256Hash               0      0.00%      5.35% # attempts to use FU when none available (Count)
system.cpu.statFuBusy::SimdSha256Hash2              0      0.00%      5.35% # attempts to use FU when none available (Count)
system.cpu.statFuBusy::SimdShaSigma2                0      0.00%      5.35% # attempts to use FU when none available (Count)
system.cpu.statFuBusy::SimdShaSigma3                0      0.00%      5.35% # attempts to use FU when none available (Count)
system.cpu.statFuBusy::SimdPredAlu                  0      0.00%      5.35% # attempts to use FU when none available (Count)
system.cpu.statFuBusy::MemRead               37529737     76.42%     81.77% # attempts to use FU when none available (Count)
system.cpu.statFuBusy::MemWrite               8950874     18.23%    100.00% # attempts to use FU when none available (Count)
system.cpu.statFuBusy::FloatMemRead                 0      0.00%    100.00% # attempts to use FU when none available (Count)
system.cpu.statFuBusy::FloatMemWrite                0      0.00%    100.00% # attempts to use FU when none available (Count)
system.cpu.statFuBusy::IprAccess                    0      0.00%    100.00% # attempts to use FU when none available (Count)
system.cpu.statFuBusy::InstPrefetch                 0      0.00%    100.00% # attempts to use FU when none available (Count)
system.cpu.statIssuedInstType_0::No_OpClass            2      0.00%      0.00% # Number of instructions issued per FU type, per thread (Count)
system.cpu.statIssuedInstType_0::IntAlu     727295991     50.56%     50.56% # Number of instructions issued per FU type, per thread (Count)
system.cpu.statIssuedInstType_0::IntMult          856      0.00%     50.56% # Number of instructions issued per FU type, per thread (Count)
system.cpu.statIssuedInstType_0::IntDiv             0      0.00%     50.56% # Number of instructions issued per FU type, per thread (Count)
system.cpu.statIssuedInstType_0::FloatAdd            0      0.00%     50.56% # Number of instructions issued per FU type, per thread (Count)
system.cpu.statIssuedInstType_0::FloatCmp            0      0.00%     50.56% # Number of instructions issued per FU type, per thread (Count)
system.cpu.statIssuedInstType_0::FloatCvt            0      0.00%     50.56% # Number of instructions issued per FU type, per thread (Count)
system.cpu.statIssuedInstType_0::FloatMult            0      0.00%     50.56% # Number of instructions issued per FU type, per thread (Count)
system.cpu.statIssuedInstType_0::FloatMultAcc            0      0.00%     50.56% # Number of instructions issued per FU type, per thread (Count)
system.cpu.statIssuedInstType_0::FloatDiv            0      0.00%     50.56% # Number of instructions issued per FU type, per thread (Count)
system.cpu.statIssuedInstType_0::FloatMisc            0      0.00%     50.56% # Number of instructions issued per FU type, per thread (Count)
system.cpu.statIssuedInstType_0::FloatSqrt            0      0.00%     50.56% # Number of instructions issued per FU type, per thread (Count)
system.cpu.statIssuedInstType_0::SimdAdd            0      0.00%     50.56% # Number of instructions issued per FU type, per thread (Count)
system.cpu.statIssuedInstType_0::SimdAddAcc            0      0.00%     50.56% # Number of instructions issued per FU type, per thread (Count)
system.cpu.statIssuedInstType_0::SimdAlu            0      0.00%     50.56% # Number of instructions issued per FU type, per thread (Count)
system.cpu.statIssuedInstType_0::SimdCmp            0      0.00%     50.56% # Number of instructions issued per FU type, per thread (Count)
system.cpu.statIssuedInstType_0::SimdCvt            0      0.00%     50.56% # Number of instructions issued per FU type, per thread (Count)
system.cpu.statIssuedInstType_0::SimdMisc            0      0.00%     50.56% # Number of instructions issued per FU type, per thread (Count)
system.cpu.statIssuedInstType_0::SimdMult            0      0.00%     50.56% # Number of instructions issued per FU type, per thread (Count)
system.cpu.statIssuedInstType_0::SimdMultAcc            0      0.00%     50.56% # Number of instructions issued per FU type, per thread (Count)
system.cpu.statIssuedInstType_0::SimdShift            0      0.00%     50.56% # Number of instructions issued per FU type, per thread (Count)
system.cpu.statIssuedInstType_0::SimdShiftAcc            0      0.00%     50.56% # Number of instructions issued per FU type, per thread (Count)
system.cpu.statIssuedInstType_0::SimdDiv            0      0.00%     50.56% # Number of instructions issued per FU type, per thread (Count)
system.cpu.statIssuedInstType_0::SimdSqrt            0      0.00%     50.56% # Number of instructions issued per FU type, per thread (Count)
system.cpu.statIssuedInstType_0::SimdFloatAdd            0      0.00%     50.56% # Number of instructions issued per FU type, per thread (Count)
system.cpu.statIssuedInstType_0::SimdFloatAlu            0      0.00%     50.56% # Number of instructions issued per FU type, per thread (Count)
system.cpu.statIssuedInstType_0::SimdFloatCmp            0      0.00%     50.56% # Number of instructions issued per FU type, per thread (Count)
system.cpu.statIssuedInstType_0::SimdFloatCvt           38      0.00%     50.56% # Number of instructions issued per FU type, per thread (Count)
system.cpu.statIssuedInstType_0::SimdFloatDiv            6      0.00%     50.56% # Number of instructions issued per FU type, per thread (Count)
system.cpu.statIssuedInstType_0::SimdFloatMisc           23      0.00%     50.56% # Number of instructions issued per FU type, per thread (Count)
system.cpu.statIssuedInstType_0::SimdFloatMult           10      0.00%     50.56% # Number of instructions issued per FU type, per thread (Count)
system.cpu.statIssuedInstType_0::SimdFloatMultAcc            0      0.00%     50.56% # Number of instructions issued per FU type, per thread (Count)
system.cpu.statIssuedInstType_0::SimdFloatSqrt            0      0.00%     50.56% # Number of instructions issued per FU type, per thread (Count)
system.cpu.statIssuedInstType_0::SimdReduceAdd            0      0.00%     50.56% # Number of instructions issued per FU type, per thread (Count)
system.cpu.statIssuedInstType_0::SimdReduceAlu            0      0.00%     50.56% # Number of instructions issued per FU type, per thread (Count)
system.cpu.statIssuedInstType_0::SimdReduceCmp            0      0.00%     50.56% # Number of instructions issued per FU type, per thread (Count)
system.cpu.statIssuedInstType_0::SimdFloatReduceAdd            0      0.00%     50.56% # Number of instructions issued per FU type, per thread (Count)
system.cpu.statIssuedInstType_0::SimdFloatReduceCmp            0      0.00%     50.56% # Number of instructions issued per FU type, per thread (Count)
system.cpu.statIssuedInstType_0::SimdAes            0      0.00%     50.56% # Number of instructions issued per FU type, per thread (Count)
system.cpu.statIssuedInstType_0::SimdAesMix            0      0.00%     50.56% # Number of instructions issued per FU type, per thread (Count)
system.cpu.statIssuedInstType_0::SimdSha1Hash            0      0.00%     50.56% # Number of instructions issued per FU type, per thread (Count)
system.cpu.statIssuedInstType_0::SimdSha1Hash2            0      0.00%     50.56% # Number of instructions issued per FU type, per thread (Count)
system.cpu.statIssuedInstType_0::SimdSha256Hash            0      0.00%     50.56% # Number of instructions issued per FU type, per thread (Count)
system.cpu.statIssuedInstType_0::SimdSha256Hash2            0      0.00%     50.56% # Number of instructions issued per FU type, per thread (Count)
system.cpu.statIssuedInstType_0::SimdShaSigma2            0      0.00%     50.56% # Number of instructions issued per FU type, per thread (Count)
system.cpu.statIssuedInstType_0::SimdShaSigma3            0      0.00%     50.56% # Number of instructions issued per FU type, per thread (Count)
system.cpu.statIssuedInstType_0::SimdPredAlu            0      0.00%     50.56% # Number of instructions issued per FU type, per thread (Count)
system.cpu.statIssuedInstType_0::MemRead    476142310     33.10%     83.66% # Number of instructions issued per FU type, per thread (Count)
system.cpu.statIssuedInstType_0::MemWrite    235099584     16.34%    100.00% # Number of instructions issued per FU type, per thread (Count)
system.cpu.statIssuedInstType_0::FloatMemRead            0      0.00%    100.00% # Number of instructions issued per FU type, per thread (Count)
system.cpu.statIssuedInstType_0::FloatMemWrite            0      0.00%    100.00% # Number of instructions issued per FU type, per thread (Count)
system.cpu.statIssuedInstType_0::IprAccess            0      0.00%    100.00% # Number of instructions issued per FU type, per thread (Count)
system.cpu.statIssuedInstType_0::InstPrefetch            0      0.00%    100.00% # Number of instructions issued per FU type, per thread (Count)
system.cpu.statIssuedInstType_0::total     1438538820                       # Number of instructions issued per FU type, per thread (Count)
system.cpu.issueRate                         2.017037                       # Inst issue rate ((Count/Cycle))
system.cpu.fuBusy                            49106690                       # FU busy when requested (Count)
system.cpu.fuBusyRate                        0.034137                       # FU busy rate (busy events/executed inst) ((Count/Count))
system.cpu.intInstQueueReads               3640698059                       # Number of integer instruction queue reads (Count)
system.cpu.intInstQueueWrites              2075564340                       # Number of integer instruction queue writes (Count)
system.cpu.intInstQueueWakeupAccesses      1365260415                       # Number of integer instruction queue wakeup accesses (Count)
system.cpu.fpInstQueueReads                         0                       # Number of floating instruction queue reads (Count)
system.cpu.fpInstQueueWrites                        0                       # Number of floating instruction queue writes (Count)
system.cpu.fpInstQueueWakeupAccesses                0                       # Number of floating instruction queue wakeup accesses (Count)
system.cpu.vecInstQueueReads                        0                       # Number of vector instruction queue reads (Count)
system.cpu.vecInstQueueWrites                       0                       # Number of vector instruction queue writes (Count)
system.cpu.vecInstQueueWakeupAccesses               0                       # Number of vector instruction queue wakeup accesses (Count)
system.cpu.intAluAccesses                  1487645508                       # Number of integer alu accesses (Count)
system.cpu.fpAluAccesses                            0                       # Number of floating point alu accesses (Count)
system.cpu.vecAluAccesses                           0                       # Number of vector alu accesses (Count)
system.cpu.numInsts                        1420367543                       # Number of executed instructions (Count)
system.cpu.numLoadInsts                     467603597                       # Number of load instructions executed (Count)
system.cpu.numSquashedInsts                  18171271                       # Number of squashed instructions skipped in execute (Count)
system.cpu.numSwp                                   0                       # Number of swp insts executed (Count)
system.cpu.numNop                                 299                       # Number of nop insts executed (Count)
system.cpu.numRefs                          699710977                       # Number of memory reference insts executed (Count)
system.cpu.numBranches                      178717273                       # Number of branches executed (Count)
system.cpu.numStoreInsts                    232107380                       # Number of stores executed (Count)
system.cpu.numRate                           1.991559                       # Inst execution rate ((Count/Cycle))
system.cpu.timesIdled                             366                       # Number of times that the entire CPU went into an idle state and unscheduled itself (Count)
system.cpu.idleCycles                            7810                       # Total number of cycles that the CPU has spent unscheduled due to idling (Cycle)
system.cpu.committedInsts                  1000000000                       # Number of Instructions Simulated (Count)
system.cpu.committedOps                    1160112256                       # Number of Ops (including micro ops) Simulated (Count)
system.cpu.cpi                               0.713194                       # CPI: Cycles Per Instruction ((Cycle/Count))
system.cpu.totalCpi                          0.713194                       # CPI: Total CPI of All Threads ((Cycle/Count))
system.cpu.ipc                               1.402143                       # IPC: Instructions Per Cycle ((Count/Cycle))
system.cpu.totalIpc                          1.402143                       # IPC: Total IPC of All Threads ((Count/Cycle))
system.cpu.intRegfileReads                 1795616978                       # Number of integer regfile reads (Count)
system.cpu.intRegfileWrites                 865338677                       # Number of integer regfile writes (Count)
system.cpu.vecRegfileReads                        186                       # number of vector regfile reads (Count)
system.cpu.vecRegfileWrites                       739                       # number of vector regfile writes (Count)
system.cpu.ccRegfileReads                  5522501315                       # number of cc regfile reads (Count)
system.cpu.ccRegfileWrites                  733440020                       # number of cc regfile writes (Count)
system.cpu.miscRegfileReads                 647990740                       # number of misc regfile reads (Count)
system.cpu.miscRegfileWrites                      158                       # number of misc regfile writes (Count)
system.cpu.MemDepUnit__0.insertedLoads      499916543                       # Number of loads inserted to the mem dependence unit. (Count)
system.cpu.MemDepUnit__0.insertedStores     275566675                       # Number of stores inserted to the mem dependence unit. (Count)
system.cpu.MemDepUnit__0.conflictingLoads    154147491                       # Number of conflicting loads. (Count)
system.cpu.MemDepUnit__0.conflictingStores    108428891                       # Number of conflicting stores. (Count)
system.cpu.MemDepUnit__1.insertedLoads              0                       # Number of loads inserted to the mem dependence unit. (Count)
system.cpu.MemDepUnit__1.insertedStores             0                       # Number of stores inserted to the mem dependence unit. (Count)
system.cpu.MemDepUnit__1.conflictingLoads            0                       # Number of conflicting loads. (Count)
system.cpu.MemDepUnit__1.conflictingStores            0                       # Number of conflicting stores. (Count)
system.cpu.MemDepUnit__2.insertedLoads              0                       # Number of loads inserted to the mem dependence unit. (Count)
system.cpu.MemDepUnit__2.insertedStores             0                       # Number of stores inserted to the mem dependence unit. (Count)
system.cpu.MemDepUnit__2.conflictingLoads            0                       # Number of conflicting loads. (Count)
system.cpu.MemDepUnit__2.conflictingStores            0                       # Number of conflicting stores. (Count)
system.cpu.MemDepUnit__3.insertedLoads              0                       # Number of loads inserted to the mem dependence unit. (Count)
system.cpu.MemDepUnit__3.insertedStores             0                       # Number of stores inserted to the mem dependence unit. (Count)
system.cpu.MemDepUnit__3.conflictingLoads            0                       # Number of conflicting loads. (Count)
system.cpu.MemDepUnit__3.conflictingStores            0                       # Number of conflicting stores. (Count)
system.cpu.branchPred.lookups               250040284                       # Number of BP lookups (Count)
system.cpu.branchPred.condPredicted         206874564                       # Number of conditional branches predicted (Count)
system.cpu.branchPred.condIncorrect          10956184                       # Number of conditional branches incorrect (Count)
system.cpu.branchPred.BTBLookups            139033411                       # Number of BTB lookups (Count)
system.cpu.branchPred.BTBHits               138926535                       # Number of BTB hits (Count)
system.cpu.branchPred.BTBHitRatio            0.999231                       # BTB Hit Ratio (Ratio)
system.cpu.branchPred.RASUsed                 9412214                       # Number of times the RAS was used to get a target. (Count)
system.cpu.branchPred.RASIncorrect                  8                       # Number of incorrect RAS predictions. (Count)
system.cpu.branchPred.indirectLookups            2408                       # Number of indirect predictor lookups. (Count)
system.cpu.branchPred.indirectHits               2081                       # Number of indirect target hits. (Count)
system.cpu.branchPred.indirectMisses              327                       # Number of indirect misses. (Count)
system.cpu.branchPred.indirectMispredicted           95                       # Number of mispredicted indirect branches. (Count)
system.cpu.commit.commitSquashedInsts       456790158                       # The number of squashed insts skipped by commit (Count)
system.cpu.commit.commitNonSpecStalls             539                       # The number of times commit has been forced to stall to communicate backwards (Count)
system.cpu.commit.branchMispredicts          10203314                       # The number of times a branch was mispredicted (Count)
system.cpu.commit.numCommittedDist::samples    650514863                       # Number of insts commited each cycle (Count)
system.cpu.commit.numCommittedDist::mean     1.783376                       # Number of insts commited each cycle (Count)
system.cpu.commit.numCommittedDist::stdev     2.524505                       # Number of insts commited each cycle (Count)
system.cpu.commit.numCommittedDist::underflows            0      0.00%      0.00% # Number of insts commited each cycle (Count)
system.cpu.commit.numCommittedDist::0       310758872     47.77%     47.77% # Number of insts commited each cycle (Count)
system.cpu.commit.numCommittedDist::1       120350169     18.50%     66.27% # Number of insts commited each cycle (Count)
system.cpu.commit.numCommittedDist::2        51709474      7.95%     74.22% # Number of insts commited each cycle (Count)
system.cpu.commit.numCommittedDist::3        35432483      5.45%     79.67% # Number of insts commited each cycle (Count)
system.cpu.commit.numCommittedDist::4        32615488      5.01%     84.68% # Number of insts commited each cycle (Count)
system.cpu.commit.numCommittedDist::5        16850992      2.59%     87.27% # Number of insts commited each cycle (Count)
system.cpu.commit.numCommittedDist::6        16123316      2.48%     89.75% # Number of insts commited each cycle (Count)
system.cpu.commit.numCommittedDist::7        14803477      2.28%     92.03% # Number of insts commited each cycle (Count)
system.cpu.commit.numCommittedDist::8        51870592      7.97%    100.00% # Number of insts commited each cycle (Count)
system.cpu.commit.numCommittedDist::overflows            0      0.00%    100.00% # Number of insts commited each cycle (Count)
system.cpu.commit.numCommittedDist::min_value            0                       # Number of insts commited each cycle (Count)
system.cpu.commit.numCommittedDist::max_value            8                       # Number of insts commited each cycle (Count)
system.cpu.commit.numCommittedDist::total    650514863                       # Number of insts commited each cycle (Count)
system.cpu.commit.instsCommitted           1000000193                       # Number of instructions committed (Count)
system.cpu.commit.opsCommitted             1160112449                       # Number of ops (including micro ops) committed (Count)
system.cpu.commit.memRefs                   581891603                       # Number of memory references committed (Count)
system.cpu.commit.loads                     366711315                       # Number of loads committed (Count)
system.cpu.commit.amos                              0                       # Number of atomic instructions committed (Count)
system.cpu.commit.membars                          79                       # Number of memory barriers committed (Count)
system.cpu.commit.branches                  142882388                       # Number of branches committed (Count)
system.cpu.commit.vectorInstructions                0                       # Number of committed Vector instructions. (Count)
system.cpu.commit.floating                          0                       # Number of committed floating point instructions. (Count)
system.cpu.commit.integer                  1016066420                       # Number of committed integer instructions. (Count)
system.cpu.commit.functionCalls               4825530                       # Number of function calls committed. (Count)
system.cpu.commit.committedInstType_0::No_OpClass            0      0.00%      0.00% # Class of committed instruction (Count)
system.cpu.commit.committedInstType_0::IntAlu    578220034     49.84%     49.84% # Class of committed instruction (Count)
system.cpu.commit.committedInstType_0::IntMult          809      0.00%     49.84% # Class of committed instruction (Count)
system.cpu.commit.committedInstType_0::IntDiv            0      0.00%     49.84% # Class of committed instruction (Count)
system.cpu.commit.committedInstType_0::FloatAdd            0      0.00%     49.84% # Class of committed instruction (Count)
system.cpu.commit.committedInstType_0::FloatCmp            0      0.00%     49.84% # Class of committed instruction (Count)
system.cpu.commit.committedInstType_0::FloatCvt            0      0.00%     49.84% # Class of committed instruction (Count)
system.cpu.commit.committedInstType_0::FloatMult            0      0.00%     49.84% # Class of committed instruction (Count)
system.cpu.commit.committedInstType_0::FloatMultAcc            0      0.00%     49.84% # Class of committed instruction (Count)
system.cpu.commit.committedInstType_0::FloatDiv            0      0.00%     49.84% # Class of committed instruction (Count)
system.cpu.commit.committedInstType_0::FloatMisc            0      0.00%     49.84% # Class of committed instruction (Count)
system.cpu.commit.committedInstType_0::FloatSqrt            0      0.00%     49.84% # Class of committed instruction (Count)
system.cpu.commit.committedInstType_0::SimdAdd            0      0.00%     49.84% # Class of committed instruction (Count)
system.cpu.commit.committedInstType_0::SimdAddAcc            0      0.00%     49.84% # Class of committed instruction (Count)
system.cpu.commit.committedInstType_0::SimdAlu            0      0.00%     49.84% # Class of committed instruction (Count)
system.cpu.commit.committedInstType_0::SimdCmp            0      0.00%     49.84% # Class of committed instruction (Count)
system.cpu.commit.committedInstType_0::SimdCvt            0      0.00%     49.84% # Class of committed instruction (Count)
system.cpu.commit.committedInstType_0::SimdMisc            0      0.00%     49.84% # Class of committed instruction (Count)
system.cpu.commit.committedInstType_0::SimdMult            0      0.00%     49.84% # Class of committed instruction (Count)
system.cpu.commit.committedInstType_0::SimdMultAcc            0      0.00%     49.84% # Class of committed instruction (Count)
system.cpu.commit.committedInstType_0::SimdShift            0      0.00%     49.84% # Class of committed instruction (Count)
system.cpu.commit.committedInstType_0::SimdShiftAcc            0      0.00%     49.84% # Class of committed instruction (Count)
system.cpu.commit.committedInstType_0::SimdDiv            0      0.00%     49.84% # Class of committed instruction (Count)
system.cpu.commit.committedInstType_0::SimdSqrt            0      0.00%     49.84% # Class of committed instruction (Count)
system.cpu.commit.committedInstType_0::SimdFloatAdd            0      0.00%     49.84% # Class of committed instruction (Count)
system.cpu.commit.committedInstType_0::SimdFloatAlu            0      0.00%     49.84% # Class of committed instruction (Count)
system.cpu.commit.committedInstType_0::SimdFloatCmp            0      0.00%     49.84% # Class of committed instruction (Count)
system.cpu.commit.committedInstType_0::SimdFloatCvt            0      0.00%     49.84% # Class of committed instruction (Count)
system.cpu.commit.committedInstType_0::SimdFloatDiv            0      0.00%     49.84% # Class of committed instruction (Count)
system.cpu.commit.committedInstType_0::SimdFloatMisc            3      0.00%     49.84% # Class of committed instruction (Count)
system.cpu.commit.committedInstType_0::SimdFloatMult            0      0.00%     49.84% # Class of committed instruction (Count)
system.cpu.commit.committedInstType_0::SimdFloatMultAcc            0      0.00%     49.84% # Class of committed instruction (Count)
system.cpu.commit.committedInstType_0::SimdFloatSqrt            0      0.00%     49.84% # Class of committed instruction (Count)
system.cpu.commit.committedInstType_0::SimdReduceAdd            0      0.00%     49.84% # Class of committed instruction (Count)
system.cpu.commit.committedInstType_0::SimdReduceAlu            0      0.00%     49.84% # Class of committed instruction (Count)
system.cpu.commit.committedInstType_0::SimdReduceCmp            0      0.00%     49.84% # Class of committed instruction (Count)
system.cpu.commit.committedInstType_0::SimdFloatReduceAdd            0      0.00%     49.84% # Class of committed instruction (Count)
system.cpu.commit.committedInstType_0::SimdFloatReduceCmp            0      0.00%     49.84% # Class of committed instruction (Count)
system.cpu.commit.committedInstType_0::SimdAes            0      0.00%     49.84% # Class of committed instruction (Count)
system.cpu.commit.committedInstType_0::SimdAesMix            0      0.00%     49.84% # Class of committed instruction (Count)
system.cpu.commit.committedInstType_0::SimdSha1Hash            0      0.00%     49.84% # Class of committed instruction (Count)
system.cpu.commit.committedInstType_0::SimdSha1Hash2            0      0.00%     49.84% # Class of committed instruction (Count)
system.cpu.commit.committedInstType_0::SimdSha256Hash            0      0.00%     49.84% # Class of committed instruction (Count)
system.cpu.commit.committedInstType_0::SimdSha256Hash2            0      0.00%     49.84% # Class of committed instruction (Count)
system.cpu.commit.committedInstType_0::SimdShaSigma2            0      0.00%     49.84% # Class of committed instruction (Count)
system.cpu.commit.committedInstType_0::SimdShaSigma3            0      0.00%     49.84% # Class of committed instruction (Count)
system.cpu.commit.committedInstType_0::SimdPredAlu            0      0.00%     49.84% # Class of committed instruction (Count)
system.cpu.commit.committedInstType_0::MemRead    366711315     31.61%     81.45% # Class of committed instruction (Count)
system.cpu.commit.committedInstType_0::MemWrite    215180288     18.55%    100.00% # Class of committed instruction (Count)
system.cpu.commit.committedInstType_0::FloatMemRead            0      0.00%    100.00% # Class of committed instruction (Count)
system.cpu.commit.committedInstType_0::FloatMemWrite            0      0.00%    100.00% # Class of committed instruction (Count)
system.cpu.commit.committedInstType_0::IprAccess            0      0.00%    100.00% # Class of committed instruction (Count)
system.cpu.commit.committedInstType_0::InstPrefetch            0      0.00%    100.00% # Class of committed instruction (Count)
system.cpu.commit.committedInstType_0::total   1160112449                       # Class of committed instruction (Count)
system.cpu.commit.commitEligibleSamples      51870592                       # number cycles where commit BW limit reached (Cycle)
system.cpu.dcache.demandHits::cpu.data      514222724                       # number of demand (read+write) hits (Count)
system.cpu.dcache.demandHits::total         514222724                       # number of demand (read+write) hits (Count)
system.cpu.dcache.overallHits::cpu.data     514237404                       # number of overall hits (Count)
system.cpu.dcache.overallHits::total        514237404                       # number of overall hits (Count)
system.cpu.dcache.demandMisses::cpu.data     83430419                       # number of demand (read+write) misses (Count)
system.cpu.dcache.demandMisses::total        83430419                       # number of demand (read+write) misses (Count)
system.cpu.dcache.overallMisses::cpu.data     91087105                       # number of overall misses (Count)
system.cpu.dcache.overallMisses::total       91087105                       # number of overall misses (Count)
system.cpu.dcache.demandMissLatency::cpu.data 4036089816532                       # number of demand (read+write) miss ticks (Tick)
system.cpu.dcache.demandMissLatency::total 4036089816532                       # number of demand (read+write) miss ticks (Tick)
system.cpu.dcache.overallMissLatency::cpu.data 4036089816532                       # number of overall miss ticks (Tick)
system.cpu.dcache.overallMissLatency::total 4036089816532                       # number of overall miss ticks (Tick)
system.cpu.dcache.demandAccesses::cpu.data    597653143                       # number of demand (read+write) accesses (Count)
system.cpu.dcache.demandAccesses::total     597653143                       # number of demand (read+write) accesses (Count)
system.cpu.dcache.overallAccesses::cpu.data    605324509                       # number of overall (read+write) accesses (Count)
system.cpu.dcache.overallAccesses::total    605324509                       # number of overall (read+write) accesses (Count)
system.cpu.dcache.demandMissRate::cpu.data     0.139597                       # miss rate for demand accesses (Ratio)
system.cpu.dcache.demandMissRate::total      0.139597                       # miss rate for demand accesses (Ratio)
system.cpu.dcache.overallMissRate::cpu.data     0.150476                       # miss rate for overall accesses (Ratio)
system.cpu.dcache.overallMissRate::total     0.150476                       # miss rate for overall accesses (Ratio)
system.cpu.dcache.demandAvgMissLatency::cpu.data 48376.717568                       # average overall miss latency in ticks ((Tick/Count))
system.cpu.dcache.demandAvgMissLatency::total 48376.717568                       # average overall miss latency in ticks ((Tick/Count))
system.cpu.dcache.overallAvgMissLatency::cpu.data 44310.221700                       # average overall miss latency ((Tick/Count))
system.cpu.dcache.overallAvgMissLatency::total 44310.221700                       # average overall miss latency ((Tick/Count))
system.cpu.dcache.blockedCycles::no_mshrs     82077138                       # number of cycles access was blocked (Cycle)
system.cpu.dcache.blockedCycles::no_targets         2147                       # number of cycles access was blocked (Cycle)
system.cpu.dcache.blockedCauses::no_mshrs      3723739                       # number of times access was blocked (Count)
system.cpu.dcache.blockedCauses::no_targets          122                       # number of times access was blocked (Count)
system.cpu.dcache.avgBlocked::no_mshrs      22.041593                       # average number of cycles each access was blocked ((Cycle/Count))
system.cpu.dcache.avgBlocked::no_targets    17.598361                       # average number of cycles each access was blocked ((Cycle/Count))
system.cpu.dcache.writebacks::writebacks     10685066                       # number of writebacks (Count)
system.cpu.dcache.writebacks::total          10685066                       # number of writebacks (Count)
system.cpu.dcache.demandMshrHits::cpu.data     64874547                       # number of demand (read+write) MSHR hits (Count)
system.cpu.dcache.demandMshrHits::total      64874547                       # number of demand (read+write) MSHR hits (Count)
system.cpu.dcache.overallMshrHits::cpu.data     64874547                       # number of overall MSHR hits (Count)
system.cpu.dcache.overallMshrHits::total     64874547                       # number of overall MSHR hits (Count)
system.cpu.dcache.demandMshrMisses::cpu.data     18555872                       # number of demand (read+write) MSHR misses (Count)
system.cpu.dcache.demandMshrMisses::total     18555872                       # number of demand (read+write) MSHR misses (Count)
system.cpu.dcache.overallMshrMisses::cpu.data     22384572                       # number of overall MSHR misses (Count)
system.cpu.dcache.overallMshrMisses::total     22384572                       # number of overall MSHR misses (Count)
system.cpu.dcache.demandMshrMissLatency::cpu.data 676097946744                       # number of demand (read+write) MSHR miss ticks (Tick)
system.cpu.dcache.demandMshrMissLatency::total 676097946744                       # number of demand (read+write) MSHR miss ticks (Tick)
system.cpu.dcache.overallMshrMissLatency::cpu.data 984443135729                       # number of overall MSHR miss ticks (Tick)
system.cpu.dcache.overallMshrMissLatency::total 984443135729                       # number of overall MSHR miss ticks (Tick)
system.cpu.dcache.demandMshrMissRate::cpu.data     0.031048                       # mshr miss ratio for demand accesses (Ratio)
system.cpu.dcache.demandMshrMissRate::total     0.031048                       # mshr miss ratio for demand accesses (Ratio)
system.cpu.dcache.overallMshrMissRate::cpu.data     0.036979                       # mshr miss ratio for overall accesses (Ratio)
system.cpu.dcache.overallMshrMissRate::total     0.036979                       # mshr miss ratio for overall accesses (Ratio)
system.cpu.dcache.demandAvgMshrMissLatency::cpu.data 36435.794919                       # average overall mshr miss latency ((Tick/Count))
system.cpu.dcache.demandAvgMshrMissLatency::total 36435.794919                       # average overall mshr miss latency ((Tick/Count))
system.cpu.dcache.overallAvgMshrMissLatency::cpu.data 43978.644565                       # average overall mshr miss latency ((Tick/Count))
system.cpu.dcache.overallAvgMshrMissLatency::total 43978.644565                       # average overall mshr miss latency ((Tick/Count))
system.cpu.dcache.replacements               22384062                       # number of replacements (Count)
system.cpu.dcache.LoadLockedReq.hits::cpu.data           37                       # number of LoadLockedReq hits (Count)
system.cpu.dcache.LoadLockedReq.hits::total           37                       # number of LoadLockedReq hits (Count)
system.cpu.dcache.LoadLockedReq.misses::cpu.data            2                       # number of LoadLockedReq misses (Count)
system.cpu.dcache.LoadLockedReq.misses::total            2                       # number of LoadLockedReq misses (Count)
system.cpu.dcache.LoadLockedReq.missLatency::cpu.data       143362                       # number of LoadLockedReq miss ticks (Tick)
system.cpu.dcache.LoadLockedReq.missLatency::total       143362                       # number of LoadLockedReq miss ticks (Tick)
system.cpu.dcache.LoadLockedReq.accesses::cpu.data           39                       # number of LoadLockedReq accesses(hits+misses) (Count)
system.cpu.dcache.LoadLockedReq.accesses::total           39                       # number of LoadLockedReq accesses(hits+misses) (Count)
system.cpu.dcache.LoadLockedReq.missRate::cpu.data     0.051282                       # miss rate for LoadLockedReq accesses (Ratio)
system.cpu.dcache.LoadLockedReq.missRate::total     0.051282                       # miss rate for LoadLockedReq accesses (Ratio)
system.cpu.dcache.LoadLockedReq.avgMissLatency::cpu.data        71681                       # average LoadLockedReq miss latency ((Tick/Count))
system.cpu.dcache.LoadLockedReq.avgMissLatency::total        71681                       # average LoadLockedReq miss latency ((Tick/Count))
system.cpu.dcache.LoadLockedReq.mshrMisses::cpu.data            2                       # number of LoadLockedReq MSHR misses (Count)
system.cpu.dcache.LoadLockedReq.mshrMisses::total            2                       # number of LoadLockedReq MSHR misses (Count)
system.cpu.dcache.LoadLockedReq.mshrMissLatency::cpu.data       134810                       # number of LoadLockedReq MSHR miss ticks (Tick)
system.cpu.dcache.LoadLockedReq.mshrMissLatency::total       134810                       # number of LoadLockedReq MSHR miss ticks (Tick)
system.cpu.dcache.LoadLockedReq.mshrMissRate::cpu.data     0.051282                       # mshr miss rate for LoadLockedReq accesses (Ratio)
system.cpu.dcache.LoadLockedReq.mshrMissRate::total     0.051282                       # mshr miss rate for LoadLockedReq accesses (Ratio)
system.cpu.dcache.LoadLockedReq.avgMshrMissLatency::cpu.data        67405                       # average LoadLockedReq mshr miss latency ((Tick/Count))
system.cpu.dcache.LoadLockedReq.avgMshrMissLatency::total        67405                       # average LoadLockedReq mshr miss latency ((Tick/Count))
system.cpu.dcache.ReadReq.hits::cpu.data    365609632                       # number of ReadReq hits (Count)
system.cpu.dcache.ReadReq.hits::total       365609632                       # number of ReadReq hits (Count)
system.cpu.dcache.ReadReq.misses::cpu.data     18793220                       # number of ReadReq misses (Count)
system.cpu.dcache.ReadReq.misses::total      18793220                       # number of ReadReq misses (Count)
system.cpu.dcache.ReadReq.missLatency::cpu.data 468668588588                       # number of ReadReq miss ticks (Tick)
system.cpu.dcache.ReadReq.missLatency::total 468668588588                       # number of ReadReq miss ticks (Tick)
system.cpu.dcache.ReadReq.accesses::cpu.data    384402852                       # number of ReadReq accesses(hits+misses) (Count)
system.cpu.dcache.ReadReq.accesses::total    384402852                       # number of ReadReq accesses(hits+misses) (Count)
system.cpu.dcache.ReadReq.missRate::cpu.data     0.048889                       # miss rate for ReadReq accesses (Ratio)
system.cpu.dcache.ReadReq.missRate::total     0.048889                       # miss rate for ReadReq accesses (Ratio)
system.cpu.dcache.ReadReq.avgMissLatency::cpu.data 24938.173905                       # average ReadReq miss latency ((Tick/Count))
system.cpu.dcache.ReadReq.avgMissLatency::total 24938.173905                       # average ReadReq miss latency ((Tick/Count))
system.cpu.dcache.ReadReq.mshrHits::cpu.data      7783673                       # number of ReadReq MSHR hits (Count)
system.cpu.dcache.ReadReq.mshrHits::total      7783673                       # number of ReadReq MSHR hits (Count)
system.cpu.dcache.ReadReq.mshrMisses::cpu.data     11009547                       # number of ReadReq MSHR misses (Count)
system.cpu.dcache.ReadReq.mshrMisses::total     11009547                       # number of ReadReq MSHR misses (Count)
system.cpu.dcache.ReadReq.mshrMissLatency::cpu.data 208505035462                       # number of ReadReq MSHR miss ticks (Tick)
system.cpu.dcache.ReadReq.mshrMissLatency::total 208505035462                       # number of ReadReq MSHR miss ticks (Tick)
system.cpu.dcache.ReadReq.mshrMissRate::cpu.data     0.028641                       # mshr miss rate for ReadReq accesses (Ratio)
system.cpu.dcache.ReadReq.mshrMissRate::total     0.028641                       # mshr miss rate for ReadReq accesses (Ratio)
system.cpu.dcache.ReadReq.avgMshrMissLatency::cpu.data 18938.566270                       # average ReadReq mshr miss latency ((Tick/Count))
system.cpu.dcache.ReadReq.avgMshrMissLatency::total 18938.566270                       # average ReadReq mshr miss latency ((Tick/Count))
system.cpu.dcache.SoftPFReq.hits::cpu.data        14680                       # number of SoftPFReq hits (Count)
system.cpu.dcache.SoftPFReq.hits::total         14680                       # number of SoftPFReq hits (Count)
system.cpu.dcache.SoftPFReq.misses::cpu.data      7656686                       # number of SoftPFReq misses (Count)
system.cpu.dcache.SoftPFReq.misses::total      7656686                       # number of SoftPFReq misses (Count)
system.cpu.dcache.SoftPFReq.accesses::cpu.data      7671366                       # number of SoftPFReq accesses(hits+misses) (Count)
system.cpu.dcache.SoftPFReq.accesses::total      7671366                       # number of SoftPFReq accesses(hits+misses) (Count)
system.cpu.dcache.SoftPFReq.missRate::cpu.data     0.998086                       # miss rate for SoftPFReq accesses (Ratio)
system.cpu.dcache.SoftPFReq.missRate::total     0.998086                       # miss rate for SoftPFReq accesses (Ratio)
system.cpu.dcache.SoftPFReq.mshrMisses::cpu.data      3828700                       # number of SoftPFReq MSHR misses (Count)
system.cpu.dcache.SoftPFReq.mshrMisses::total      3828700                       # number of SoftPFReq MSHR misses (Count)
system.cpu.dcache.SoftPFReq.mshrMissLatency::cpu.data 308345188985                       # number of SoftPFReq MSHR miss ticks (Tick)
system.cpu.dcache.SoftPFReq.mshrMissLatency::total 308345188985                       # number of SoftPFReq MSHR miss ticks (Tick)
system.cpu.dcache.SoftPFReq.mshrMissRate::cpu.data     0.499090                       # mshr miss rate for SoftPFReq accesses (Ratio)
system.cpu.dcache.SoftPFReq.mshrMissRate::total     0.499090                       # mshr miss rate for SoftPFReq accesses (Ratio)
system.cpu.dcache.SoftPFReq.avgMshrMissLatency::cpu.data 80535.217955                       # average SoftPFReq mshr miss latency ((Tick/Count))
system.cpu.dcache.SoftPFReq.avgMshrMissLatency::total 80535.217955                       # average SoftPFReq mshr miss latency ((Tick/Count))
system.cpu.dcache.StoreCondReq.hits::cpu.data           39                       # number of StoreCondReq hits (Count)
system.cpu.dcache.StoreCondReq.hits::total           39                       # number of StoreCondReq hits (Count)
system.cpu.dcache.StoreCondReq.accesses::cpu.data           39                       # number of StoreCondReq accesses(hits+misses) (Count)
system.cpu.dcache.StoreCondReq.accesses::total           39                       # number of StoreCondReq accesses(hits+misses) (Count)
system.cpu.dcache.WriteReq.hits::cpu.data    148613092                       # number of WriteReq hits (Count)
system.cpu.dcache.WriteReq.hits::total      148613092                       # number of WriteReq hits (Count)
system.cpu.dcache.WriteReq.misses::cpu.data     64637199                       # number of WriteReq misses (Count)
system.cpu.dcache.WriteReq.misses::total     64637199                       # number of WriteReq misses (Count)
system.cpu.dcache.WriteReq.missLatency::cpu.data 3567421227944                       # number of WriteReq miss ticks (Tick)
system.cpu.dcache.WriteReq.missLatency::total 3567421227944                       # number of WriteReq miss ticks (Tick)
system.cpu.dcache.WriteReq.accesses::cpu.data    213250291                       # number of WriteReq accesses(hits+misses) (Count)
system.cpu.dcache.WriteReq.accesses::total    213250291                       # number of WriteReq accesses(hits+misses) (Count)
system.cpu.dcache.WriteReq.missRate::cpu.data     0.303105                       # miss rate for WriteReq accesses (Ratio)
system.cpu.dcache.WriteReq.missRate::total     0.303105                       # miss rate for WriteReq accesses (Ratio)
system.cpu.dcache.WriteReq.avgMissLatency::cpu.data 55191.457599                       # average WriteReq miss latency ((Tick/Count))
system.cpu.dcache.WriteReq.avgMissLatency::total 55191.457599                       # average WriteReq miss latency ((Tick/Count))
system.cpu.dcache.WriteReq.mshrHits::cpu.data     57090874                       # number of WriteReq MSHR hits (Count)
system.cpu.dcache.WriteReq.mshrHits::total     57090874                       # number of WriteReq MSHR hits (Count)
system.cpu.dcache.WriteReq.mshrMisses::cpu.data      7546325                       # number of WriteReq MSHR misses (Count)
system.cpu.dcache.WriteReq.mshrMisses::total      7546325                       # number of WriteReq MSHR misses (Count)
system.cpu.dcache.WriteReq.mshrMissLatency::cpu.data 467592911282                       # number of WriteReq MSHR miss ticks (Tick)
system.cpu.dcache.WriteReq.mshrMissLatency::total 467592911282                       # number of WriteReq MSHR miss ticks (Tick)
system.cpu.dcache.WriteReq.mshrMissRate::cpu.data     0.035387                       # mshr miss rate for WriteReq accesses (Ratio)
system.cpu.dcache.WriteReq.mshrMissRate::total     0.035387                       # mshr miss rate for WriteReq accesses (Ratio)
system.cpu.dcache.WriteReq.avgMshrMissLatency::cpu.data 61962.996728                       # average WriteReq mshr miss latency ((Tick/Count))
system.cpu.dcache.WriteReq.avgMshrMissLatency::total 61962.996728                       # average WriteReq mshr miss latency ((Tick/Count))
system.cpu.dcache.power_state.pwrStateResidencyTicks::UNDEFINED 1188894266307                       # Cumulative time (in ticks) in various power states (Tick)
system.cpu.dcache.tags.tagsInUse           500.901537                       # Average ticks per tags in use ((Tick/Count))
system.cpu.dcache.tags.totalRefs            536622054                       # Total number of references to valid blocks. (Count)
system.cpu.dcache.tags.sampledRefs           22384574                       # Sample count of references to valid blocks. (Count)
system.cpu.dcache.tags.avgRefs              23.972851                       # Average number of references to valid blocks. ((Count/Count))
system.cpu.dcache.tags.warmupTick              160000                       # The tick when the warmup percentage was hit. (Tick)
system.cpu.dcache.tags.occupancies::cpu.data   500.901537                       # Average occupied blocks per tick, per requestor ((Count/Tick))
system.cpu.dcache.tags.avgOccs::cpu.data     0.978323                       # Average percentage of cache occupancy ((Ratio/Tick))
system.cpu.dcache.tags.avgOccs::total        0.978323                       # Average percentage of cache occupancy ((Ratio/Tick))
system.cpu.dcache.tags.occupanciesTaskId::1024          512                       # Occupied blocks per task id (Count)
system.cpu.dcache.tags.ageTaskId_1024::0           88                       # Occupied blocks per task id, per block age (Count)
system.cpu.dcache.tags.ageTaskId_1024::1          315                       # Occupied blocks per task id, per block age (Count)
system.cpu.dcache.tags.ageTaskId_1024::2          109                       # Occupied blocks per task id, per block age (Count)
system.cpu.dcache.tags.ratioOccsTaskId::1024            1                       # Ratio of occupied blocks and all blocks, per task id (Ratio)
system.cpu.dcache.tags.tagAccesses         2443682922                       # Number of tag accesses (Count)
system.cpu.dcache.tags.dataAccesses        2443682922                       # Number of data accesses (Count)
system.cpu.dcache.tags.power_state.pwrStateResidencyTicks::UNDEFINED 1188894266307                       # Cumulative time (in ticks) in various power states (Tick)
system.cpu.decode.idleCycles                126987044                       # Number of cycles decode is idle (Cycle)
system.cpu.decode.blockedCycles             302498570                       # Number of cycles decode is blocked (Cycle)
system.cpu.decode.runCycles                 220034549                       # Number of cycles decode is running (Cycle)
system.cpu.decode.unblockCycles              53026823                       # Number of cycles decode is unblocking (Cycle)
system.cpu.decode.squashCycles               10639126                       # Number of cycles decode is squashing (Cycle)
system.cpu.decode.branchResolved            128765717                       # Number of times decode resolved a branch (Count)
system.cpu.decode.branchMispred                773135                       # Number of times decode detected a branch misprediction (Count)
system.cpu.decode.decodedInsts             1736049679                       # Number of instructions handled by decode (Count)
system.cpu.decode.squashedInsts               2611173                       # Number of squashed instructions handled by decode (Count)
system.cpu.fetch.icacheStallCycles          169840257                       # Number of cycles fetch is stalled on an Icache miss (Cycle)
system.cpu.fetch.insts                     1620069328                       # Number of instructions fetch has processed (Count)
system.cpu.fetch.branches                   250040284                       # Number of branches that fetch encountered (Count)
system.cpu.fetch.predictedBranches          148340830                       # Number of branches that fetch has predicted taken (Count)
system.cpu.fetch.cycles                     531953845                       # Number of cycles fetch has run and was not squashing or blocked (Cycle)
system.cpu.fetch.squashCycles                22783994                       # Number of cycles fetch has spent squashing (Cycle)
system.cpu.fetch.miscStallCycles                    1                       # Number of cycles fetch has spent waiting on interrupts, or bad addresses, or out of MSHRs (Cycle)
system.cpu.fetch.pendingTrapStallCycles            12                       # Number of stall cycles due to pending traps (Cycle)
system.cpu.fetch.cacheLines                 164026799                       # Number of cache lines fetched (Count)
system.cpu.fetch.icacheSquashes               3291925                       # Number of outstanding Icache misses that were squashed (Count)
system.cpu.fetch.nisnDist::samples          713186112                       # Number of instructions fetched each cycle (Total) (Count)
system.cpu.fetch.nisnDist::mean              2.583622                       # Number of instructions fetched each cycle (Total) (Count)
system.cpu.fetch.nisnDist::stdev             3.209115                       # Number of instructions fetched each cycle (Total) (Count)
system.cpu.fetch.nisnDist::underflows               0      0.00%      0.00% # Number of instructions fetched each cycle (Total) (Count)
system.cpu.fetch.nisnDist::0                379214704     53.17%     53.17% # Number of instructions fetched each cycle (Total) (Count)
system.cpu.fetch.nisnDist::1                 21873490      3.07%     56.24% # Number of instructions fetched each cycle (Total) (Count)
system.cpu.fetch.nisnDist::2                 35715564      5.01%     61.25% # Number of instructions fetched each cycle (Total) (Count)
system.cpu.fetch.nisnDist::3                 21367424      3.00%     64.24% # Number of instructions fetched each cycle (Total) (Count)
system.cpu.fetch.nisnDist::4                 39820925      5.58%     69.83% # Number of instructions fetched each cycle (Total) (Count)
system.cpu.fetch.nisnDist::5                 35489712      4.98%     74.80% # Number of instructions fetched each cycle (Total) (Count)
system.cpu.fetch.nisnDist::6                 30168877      4.23%     79.03% # Number of instructions fetched each cycle (Total) (Count)
system.cpu.fetch.nisnDist::7                 28832345      4.04%     83.08% # Number of instructions fetched each cycle (Total) (Count)
system.cpu.fetch.nisnDist::8                120703071     16.92%    100.00% # Number of instructions fetched each cycle (Total) (Count)
system.cpu.fetch.nisnDist::overflows                0      0.00%    100.00% # Number of instructions fetched each cycle (Total) (Count)
system.cpu.fetch.nisnDist::min_value                0                       # Number of instructions fetched each cycle (Total) (Count)
system.cpu.fetch.nisnDist::max_value                8                       # Number of instructions fetched each cycle (Total) (Count)
system.cpu.fetch.nisnDist::total            713186112                       # Number of instructions fetched each cycle (Total) (Count)
system.cpu.fetch.branchRate                  0.350592                       # Number of branch fetches per cycle (Ratio)
system.cpu.fetch.rate                        2.271569                       # Number of inst fetches per cycle ((Count/Cycle))
system.cpu.icache.demandHits::cpu.inst      164025717                       # number of demand (read+write) hits (Count)
system.cpu.icache.demandHits::total         164025717                       # number of demand (read+write) hits (Count)
system.cpu.icache.overallHits::cpu.inst     164025717                       # number of overall hits (Count)
system.cpu.icache.overallHits::total        164025717                       # number of overall hits (Count)
system.cpu.icache.demandMisses::cpu.inst         1082                       # number of demand (read+write) misses (Count)
system.cpu.icache.demandMisses::total            1082                       # number of demand (read+write) misses (Count)
system.cpu.icache.overallMisses::cpu.inst         1082                       # number of overall misses (Count)
system.cpu.icache.overallMisses::total           1082                       # number of overall misses (Count)
system.cpu.icache.demandMissLatency::cpu.inst     75813493                       # number of demand (read+write) miss ticks (Tick)
system.cpu.icache.demandMissLatency::total     75813493                       # number of demand (read+write) miss ticks (Tick)
system.cpu.icache.overallMissLatency::cpu.inst     75813493                       # number of overall miss ticks (Tick)
system.cpu.icache.overallMissLatency::total     75813493                       # number of overall miss ticks (Tick)
system.cpu.icache.demandAccesses::cpu.inst    164026799                       # number of demand (read+write) accesses (Count)
system.cpu.icache.demandAccesses::total     164026799                       # number of demand (read+write) accesses (Count)
system.cpu.icache.overallAccesses::cpu.inst    164026799                       # number of overall (read+write) accesses (Count)
system.cpu.icache.overallAccesses::total    164026799                       # number of overall (read+write) accesses (Count)
system.cpu.icache.demandMissRate::cpu.inst     0.000007                       # miss rate for demand accesses (Ratio)
system.cpu.icache.demandMissRate::total      0.000007                       # miss rate for demand accesses (Ratio)
system.cpu.icache.overallMissRate::cpu.inst     0.000007                       # miss rate for overall accesses (Ratio)
system.cpu.icache.overallMissRate::total     0.000007                       # miss rate for overall accesses (Ratio)
system.cpu.icache.demandAvgMissLatency::cpu.inst 70067.923290                       # average overall miss latency in ticks ((Tick/Count))
system.cpu.icache.demandAvgMissLatency::total 70067.923290                       # average overall miss latency in ticks ((Tick/Count))
system.cpu.icache.overallAvgMissLatency::cpu.inst 70067.923290                       # average overall miss latency ((Tick/Count))
system.cpu.icache.overallAvgMissLatency::total 70067.923290                       # average overall miss latency ((Tick/Count))
system.cpu.icache.blockedCycles::no_mshrs           31                       # number of cycles access was blocked (Cycle)
system.cpu.icache.blockedCycles::no_targets            0                       # number of cycles access was blocked (Cycle)
system.cpu.icache.blockedCauses::no_mshrs            3                       # number of times access was blocked (Count)
system.cpu.icache.blockedCauses::no_targets            0                       # number of times access was blocked (Count)
system.cpu.icache.avgBlocked::no_mshrs      10.333333                       # average number of cycles each access was blocked ((Cycle/Count))
system.cpu.icache.avgBlocked::no_targets          nan                       # average number of cycles each access was blocked ((Cycle/Count))
system.cpu.icache.demandMshrHits::cpu.inst          337                       # number of demand (read+write) MSHR hits (Count)
system.cpu.icache.demandMshrHits::total           337                       # number of demand (read+write) MSHR hits (Count)
system.cpu.icache.overallMshrHits::cpu.inst          337                       # number of overall MSHR hits (Count)
system.cpu.icache.overallMshrHits::total          337                       # number of overall MSHR hits (Count)
system.cpu.icache.demandMshrMisses::cpu.inst          745                       # number of demand (read+write) MSHR misses (Count)
system.cpu.icache.demandMshrMisses::total          745                       # number of demand (read+write) MSHR misses (Count)
system.cpu.icache.overallMshrMisses::cpu.inst          745                       # number of overall MSHR misses (Count)
system.cpu.icache.overallMshrMisses::total          745                       # number of overall MSHR misses (Count)
system.cpu.icache.demandMshrMissLatency::cpu.inst     56615339                       # number of demand (read+write) MSHR miss ticks (Tick)
system.cpu.icache.demandMshrMissLatency::total     56615339                       # number of demand (read+write) MSHR miss ticks (Tick)
system.cpu.icache.overallMshrMissLatency::cpu.inst     56615339                       # number of overall MSHR miss ticks (Tick)
system.cpu.icache.overallMshrMissLatency::total     56615339                       # number of overall MSHR miss ticks (Tick)
system.cpu.icache.demandMshrMissRate::cpu.inst     0.000005                       # mshr miss ratio for demand accesses (Ratio)
system.cpu.icache.demandMshrMissRate::total     0.000005                       # mshr miss ratio for demand accesses (Ratio)
system.cpu.icache.overallMshrMissRate::cpu.inst     0.000005                       # mshr miss ratio for overall accesses (Ratio)
system.cpu.icache.overallMshrMissRate::total     0.000005                       # mshr miss ratio for overall accesses (Ratio)
system.cpu.icache.demandAvgMshrMissLatency::cpu.inst 75993.743624                       # average overall mshr miss latency ((Tick/Count))
system.cpu.icache.demandAvgMshrMissLatency::total 75993.743624                       # average overall mshr miss latency ((Tick/Count))
system.cpu.icache.overallAvgMshrMissLatency::cpu.inst 75993.743624                       # average overall mshr miss latency ((Tick/Count))
system.cpu.icache.overallAvgMshrMissLatency::total 75993.743624                       # average overall mshr miss latency ((Tick/Count))
system.cpu.icache.replacements                    265                       # number of replacements (Count)
system.cpu.icache.ReadReq.hits::cpu.inst    164025717                       # number of ReadReq hits (Count)
system.cpu.icache.ReadReq.hits::total       164025717                       # number of ReadReq hits (Count)
system.cpu.icache.ReadReq.misses::cpu.inst         1082                       # number of ReadReq misses (Count)
system.cpu.icache.ReadReq.misses::total          1082                       # number of ReadReq misses (Count)
system.cpu.icache.ReadReq.missLatency::cpu.inst     75813493                       # number of ReadReq miss ticks (Tick)
system.cpu.icache.ReadReq.missLatency::total     75813493                       # number of ReadReq miss ticks (Tick)
system.cpu.icache.ReadReq.accesses::cpu.inst    164026799                       # number of ReadReq accesses(hits+misses) (Count)
system.cpu.icache.ReadReq.accesses::total    164026799                       # number of ReadReq accesses(hits+misses) (Count)
system.cpu.icache.ReadReq.missRate::cpu.inst     0.000007                       # miss rate for ReadReq accesses (Ratio)
system.cpu.icache.ReadReq.missRate::total     0.000007                       # miss rate for ReadReq accesses (Ratio)
system.cpu.icache.ReadReq.avgMissLatency::cpu.inst 70067.923290                       # average ReadReq miss latency ((Tick/Count))
system.cpu.icache.ReadReq.avgMissLatency::total 70067.923290                       # average ReadReq miss latency ((Tick/Count))
system.cpu.icache.ReadReq.mshrHits::cpu.inst          337                       # number of ReadReq MSHR hits (Count)
system.cpu.icache.ReadReq.mshrHits::total          337                       # number of ReadReq MSHR hits (Count)
system.cpu.icache.ReadReq.mshrMisses::cpu.inst          745                       # number of ReadReq MSHR misses (Count)
system.cpu.icache.ReadReq.mshrMisses::total          745                       # number of ReadReq MSHR misses (Count)
system.cpu.icache.ReadReq.mshrMissLatency::cpu.inst     56615339                       # number of ReadReq MSHR miss ticks (Tick)
system.cpu.icache.ReadReq.mshrMissLatency::total     56615339                       # number of ReadReq MSHR miss ticks (Tick)
system.cpu.icache.ReadReq.mshrMissRate::cpu.inst     0.000005                       # mshr miss rate for ReadReq accesses (Ratio)
system.cpu.icache.ReadReq.mshrMissRate::total     0.000005                       # mshr miss rate for ReadReq accesses (Ratio)
system.cpu.icache.ReadReq.avgMshrMissLatency::cpu.inst 75993.743624                       # average ReadReq mshr miss latency ((Tick/Count))
system.cpu.icache.ReadReq.avgMshrMissLatency::total 75993.743624                       # average ReadReq mshr miss latency ((Tick/Count))
system.cpu.icache.power_state.pwrStateResidencyTicks::UNDEFINED 1188894266307                       # Cumulative time (in ticks) in various power states (Tick)
system.cpu.icache.tags.tagsInUse           424.203735                       # Average ticks per tags in use ((Tick/Count))
system.cpu.icache.tags.totalRefs            164026462                       # Total number of references to valid blocks. (Count)
system.cpu.icache.tags.sampledRefs                745                       # Sample count of references to valid blocks. (Count)
system.cpu.icache.tags.avgRefs           220169.747651                       # Average number of references to valid blocks. ((Count/Count))
system.cpu.icache.tags.warmupTick               82000                       # The tick when the warmup percentage was hit. (Tick)
system.cpu.icache.tags.occupancies::cpu.inst   424.203735                       # Average occupied blocks per tick, per requestor ((Count/Tick))
system.cpu.icache.tags.avgOccs::cpu.inst     0.828523                       # Average percentage of cache occupancy ((Ratio/Tick))
system.cpu.icache.tags.avgOccs::total        0.828523                       # Average percentage of cache occupancy ((Ratio/Tick))
system.cpu.icache.tags.occupanciesTaskId::1024          480                       # Occupied blocks per task id (Count)
system.cpu.icache.tags.ageTaskId_1024::4          480                       # Occupied blocks per task id, per block age (Count)
system.cpu.icache.tags.ratioOccsTaskId::1024     0.937500                       # Ratio of occupied blocks and all blocks, per task id (Ratio)
system.cpu.icache.tags.tagAccesses          656107941                       # Number of tag accesses (Count)
system.cpu.icache.tags.dataAccesses         656107941                       # Number of data accesses (Count)
system.cpu.icache.tags.power_state.pwrStateResidencyTicks::UNDEFINED 1188894266307                       # Cumulative time (in ticks) in various power states (Tick)
system.cpu.iew.idleCycles                           0                       # Number of cycles IEW is idle (Cycle)
system.cpu.iew.squashCycles                  10639126                       # Number of cycles IEW is squashing (Cycle)
system.cpu.iew.blockCycles                   56028627                       # Number of cycles IEW is blocking (Cycle)
system.cpu.iew.unblockCycles                 18831302                       # Number of cycles IEW is unblocking (Cycle)
system.cpu.iew.dispatchedInsts             1617686983                       # Number of instructions dispatched to IQ (Count)
system.cpu.iew.dispSquashedInsts              1939360                       # Number of squashed instructions skipped by dispatch (Count)
system.cpu.iew.dispLoadInsts                499916543                       # Number of dispatched load instructions (Count)
system.cpu.iew.dispStoreInsts               275566675                       # Number of dispatched store instructions (Count)
system.cpu.iew.dispNonSpecInsts                  3526                       # Number of dispatched non-speculative instructions (Count)
system.cpu.iew.iqFullEvents                    546103                       # Number of times the IQ has become full, causing a stall (Count)
system.cpu.iew.lsqFullEvents                 17464344                       # Number of times the LSQ has become full, causing a stall (Count)
system.cpu.iew.memOrderViolationEvents         309341                       # Number of memory order violations (Count)
system.cpu.iew.predictedTakenIncorrect        5816017                       # Number of branches that were predicted taken incorrectly (Count)
system.cpu.iew.predictedNotTakenIncorrect      6782049                       # Number of branches that were predicted not taken incorrectly (Count)
system.cpu.iew.branchMispredicts             12598066                       # Number of branch mispredicts detected at execute (Count)
system.cpu.iew.instsToCommit               1381180611                       # Cumulative count of insts sent to commit (Count)
system.cpu.iew.writebackCount              1365260415                       # Cumulative count of insts written-back (Count)
system.cpu.iew.producerInst                 789058293                       # Number of instructions producing a value (Count)
system.cpu.iew.consumerInst                1220768954                       # Number of instructions consuming a value (Count)
system.cpu.iew.wbRate                        1.914291                       # Insts written-back per cycle ((Count/Cycle))
system.cpu.iew.wbFanout                      0.646362                       # Average fanout of values written-back ((Count/Count))
system.cpu.lsq0.forwLoads                    46812652                       # Number of loads that had data forwarded from stores (Count)
system.cpu.lsq0.squashedLoads               133205198                       # Number of loads squashed (Count)
system.cpu.lsq0.ignoredResponses               135932                       # Number of memory responses ignored because the instruction is squashed (Count)
system.cpu.lsq0.memOrderViolation              309341                       # Number of memory ordering violations (Count)
system.cpu.lsq0.squashedStores               60386373                       # Number of stores squashed (Count)
system.cpu.lsq0.rescheduledLoads              7845689                       # Number of loads that were rescheduled (Count)
system.cpu.lsq0.blockedByCache                3524468                       # Number of times an access to memory failed due to the cache being blocked (Count)
system.cpu.lsq0.loadToUse::samples          359040299                       # Distribution of cycle latency between the first time a load is issued and its completion (Unspecified)
system.cpu.lsq0.loadToUse::mean              4.454370                       # Distribution of cycle latency between the first time a load is issued and its completion (Unspecified)
system.cpu.lsq0.loadToUse::stdev            10.163637                       # Distribution of cycle latency between the first time a load is issued and its completion (Unspecified)
system.cpu.lsq0.loadToUse::0-9              340244325     94.76%     94.76% # Distribution of cycle latency between the first time a load is issued and its completion (Unspecified)
system.cpu.lsq0.loadToUse::10-19             12285512      3.42%     98.19% # Distribution of cycle latency between the first time a load is issued and its completion (Unspecified)
system.cpu.lsq0.loadToUse::20-29              1683292      0.47%     98.66% # Distribution of cycle latency between the first time a load is issued and its completion (Unspecified)
system.cpu.lsq0.loadToUse::30-39              2869987      0.80%     99.45% # Distribution of cycle latency between the first time a load is issued and its completion (Unspecified)
system.cpu.lsq0.loadToUse::40-49               766848      0.21%     99.67% # Distribution of cycle latency between the first time a load is issued and its completion (Unspecified)
system.cpu.lsq0.loadToUse::50-59               308472      0.09%     99.75% # Distribution of cycle latency between the first time a load is issued and its completion (Unspecified)
[...]
system.mem_ctrl.dram.perBankRdBursts::7        298661                       # Per bank write bursts (Count)
system.mem_ctrl.dram.perBankRdBursts::8        298365                       # Per bank write bursts (Count)
system.mem_ctrl.dram.perBankRdBursts::9        297251                       # Per bank write bursts (Count)
system.mem_ctrl.dram.perBankRdBursts::10       296929                       # Per bank write bursts (Count)
system.mem_ctrl.dram.perBankRdBursts::11       297252                       # Per bank write bursts (Count)
system.mem_ctrl.dram.perBankRdBursts::12       296011                       # Per bank write bursts (Count)
system.mem_ctrl.dram.perBankRdBursts::13       296955                       # Per bank write bursts (Count)
system.mem_ctrl.dram.perBankRdBursts::14       296209                       # Per bank write bursts (Count)
system.mem_ctrl.dram.perBankRdBursts::15       298083                       # Per bank write bursts (Count)
system.mem_ctrl.dram.perBankRdBursts::16       297422                       # Per bank write bursts (Count)
system.mem_ctrl.dram.perBankRdBursts::17       294882                       # Per bank write bursts (Count)
system.mem_ctrl.dram.perBankRdBursts::18       296958                       # Per bank write bursts (Count)
system.mem_ctrl.dram.perBankRdBursts::19       298875                       # Per bank write bursts (Count)
system.mem_ctrl.dram.perBankRdBursts::20       296098                       # Per bank write bursts (Count)
system.mem_ctrl.dram.perBankRdBursts::21       295937                       # Per bank write bursts (Count)
system.mem_ctrl.dram.perBankRdBursts::22       296192                       # Per bank write bursts (Count)
system.mem_ctrl.dram.perBankRdBursts::23       296277                       # Per bank write bursts (Count)
system.mem_ctrl.dram.perBankRdBursts::24       296975                       # Per bank write bursts (Count)
system.mem_ctrl.dram.perBankRdBursts::25       296081                       # Per bank write bursts (Count)
system.mem_ctrl.dram.perBankRdBursts::26       296382                       # Per bank write bursts (Count)
system.mem_ctrl.dram.perBankRdBursts::27       294098                       # Per bank write bursts (Count)
system.mem_ctrl.dram.perBankRdBursts::28       300231                       # Per bank write bursts (Count)
system.mem_ctrl.dram.perBankRdBursts::29       301583                       # Per bank write bursts (Count)
system.mem_ctrl.dram.perBankRdBursts::30       300263                       # Per bank write bursts (Count)
system.mem_ctrl.dram.perBankRdBursts::31       298705                       # Per bank write bursts (Count)
system.mem_ctrl.dram.perBankWrBursts::0        163077                       # Per bank write bursts (Count)
system.mem_ctrl.dram.perBankWrBursts::1        164681                       # Per bank write bursts (Count)
system.mem_ctrl.dram.perBankWrBursts::2        163778                       # Per bank write bursts (Count)
system.mem_ctrl.dram.perBankWrBursts::3        163814                       # Per bank write bursts (Count)
system.mem_ctrl.dram.perBankWrBursts::4        164321                       # Per bank write bursts (Count)
system.mem_ctrl.dram.perBankWrBursts::5        163883                       # Per bank write bursts (Count)
system.mem_ctrl.dram.perBankWrBursts::6        164798                       # Per bank write bursts (Count)
system.mem_ctrl.dram.perBankWrBursts::7        163842                       # Per bank write bursts (Count)
system.mem_ctrl.dram.perBankWrBursts::8        163686                       # Per bank write bursts (Count)
system.mem_ctrl.dram.perBankWrBursts::9        162770                       # Per bank write bursts (Count)
system.mem_ctrl.dram.perBankWrBursts::10       162709                       # Per bank write bursts (Count)
system.mem_ctrl.dram.perBankWrBursts::11       162458                       # Per bank write bursts (Count)
system.mem_ctrl.dram.perBankWrBursts::12       162470                       # Per bank write bursts (Count)
system.mem_ctrl.dram.perBankWrBursts::13       163153                       # Per bank write bursts (Count)
system.mem_ctrl.dram.perBankWrBursts::14       162817                       # Per bank write bursts (Count)
system.mem_ctrl.dram.perBankWrBursts::15       163357                       # Per bank write bursts (Count)
system.mem_ctrl.dram.perBankWrBursts::16       163263                       # Per bank write bursts (Count)
system.mem_ctrl.dram.perBankWrBursts::17       161784                       # Per bank write bursts (Count)
system.mem_ctrl.dram.perBankWrBursts::18       163034                       # Per bank write bursts (Count)
system.mem_ctrl.dram.perBankWrBursts::19       163239                       # Per bank write bursts (Count)
system.mem_ctrl.dram.perBankWrBursts::20       162542                       # Per bank write bursts (Count)
system.mem_ctrl.dram.perBankWrBursts::21       161074                       # Per bank write bursts (Count)
system.mem_ctrl.dram.perBankWrBursts::22       161745                       # Per bank write bursts (Count)
system.mem_ctrl.dram.perBankWrBursts::23       160797                       # Per bank write bursts (Count)
system.mem_ctrl.dram.perBankWrBursts::24       162126                       # Per bank write bursts (Count)
system.mem_ctrl.dram.perBankWrBursts::25       161033                       # Per bank write bursts (Count)
system.mem_ctrl.dram.perBankWrBursts::26       161579                       # Per bank write bursts (Count)
system.mem_ctrl.dram.perBankWrBursts::27       159756                       # Per bank write bursts (Count)
system.mem_ctrl.dram.perBankWrBursts::28       164291                       # Per bank write bursts (Count)
system.mem_ctrl.dram.perBankWrBursts::29       164295                       # Per bank write bursts (Count)
system.mem_ctrl.dram.perBankWrBursts::30       164177                       # Per bank write bursts (Count)
system.mem_ctrl.dram.perBankWrBursts::31       163117                       # Per bank write bursts (Count)
system.mem_ctrl.dram.totQLat             144175089760                       # Total ticks spent queuing (Tick)
system.mem_ctrl.dram.totBusLat            31763549496                       # Total ticks spent in databus transfers (Tick)
system.mem_ctrl.dram.totMemAccLat        310924191736                       # Total ticks spent from burst creation until serviced by the DRAM (Tick)
system.mem_ctrl.dram.avgQLat                 15123.98                       # Average queueing delay per DRAM burst ((Tick/Count))
system.mem_ctrl.dram.avgBusLat                3332.00                       # Average bus latency per DRAM burst ((Tick/Count))
system.mem_ctrl.dram.avgMemAccLat            32615.98                       # Average memory access latency per DRAM burst ((Tick/Count))
system.mem_ctrl.dram.readRowHits              8491557                       # Number of row buffer hits during reads (Count)
system.mem_ctrl.dram.writeRowHits             4464343                       # Number of row buffer hits during writes (Count)
system.mem_ctrl.dram.readRowHitRate             89.08                       # Row buffer hit rate for reads (Ratio)
system.mem_ctrl.dram.writeRowHitRate            85.63                       # Row buffer hit rate for writes (Ratio)
system.mem_ctrl.dram.bytesPerActivate::samples      1790444                       # Bytes accessed per row activation (Byte)
system.mem_ctrl.dram.bytesPerActivate::mean   527.112837                       # Bytes accessed per row activation (Byte)
system.mem_ctrl.dram.bytesPerActivate::gmean   340.014000                       # Bytes accessed per row activation (Byte)
system.mem_ctrl.dram.bytesPerActivate::stdev   378.217175                       # Bytes accessed per row activation (Byte)
system.mem_ctrl.dram.bytesPerActivate::0-127       429809     24.01%     24.01% # Bytes accessed per row activation (Byte)
system.mem_ctrl.dram.bytesPerActivate::128-255       147330      8.23%     32.23% # Bytes accessed per row activation (Byte)
system.mem_ctrl.dram.bytesPerActivate::256-383        71298      3.98%     36.22% # Bytes accessed per row activation (Byte)
system.mem_ctrl.dram.bytesPerActivate::384-511        79704      4.45%     40.67% # Bytes accessed per row activation (Byte)
system.mem_ctrl.dram.bytesPerActivate::512-639       411692     22.99%     63.66% # Bytes accessed per row activation (Byte)
system.mem_ctrl.dram.bytesPerActivate::640-767        61039      3.41%     67.07% # Bytes accessed per row activation (Byte)
system.mem_ctrl.dram.bytesPerActivate::768-895        40481      2.26%     69.33% # Bytes accessed per row activation (Byte)
system.mem_ctrl.dram.bytesPerActivate::896-1023        32116      1.79%     71.13% # Bytes accessed per row activation (Byte)
system.mem_ctrl.dram.bytesPerActivate::1024-1151       516975     28.87%    100.00% # Bytes accessed per row activation (Byte)
system.mem_ctrl.dram.bytesPerActivate::total      1790444                       # Bytes accessed per row activation (Byte)
system.mem_ctrl.dram.bytesRead              610104192                       # Total bytes read (Byte)
system.mem_ctrl.dram.bytesWritten           333661824                       # Total bytes written (Byte)
system.mem_ctrl.dram.avgRdBW               513.169429                       # Average DRAM read bandwidth in MiBytes/s ((Byte/Second))
system.mem_ctrl.dram.avgWrBW               280.648863                       # Average DRAM write bandwidth in MiBytes/s ((Byte/Second))
system.mem_ctrl.dram.peakBW                  19207.00                       # Theoretical peak bandwidth in MiByte/s ((Byte/Second))
system.mem_ctrl.dram.busUtil                     4.13                       # Data bus utilization in percentage (Ratio)
system.mem_ctrl.dram.busUtilRead                 2.67                       # Data bus utilization in percentage for reads (Ratio)
system.mem_ctrl.dram.busUtilWrite                1.46                       # Data bus utilization in percentage for writes (Ratio)
system.mem_ctrl.dram.pageHitRate                87.86                       # Row buffer hit rate, read and write combined (Ratio)
system.mem_ctrl.dram.power_state.pwrStateResidencyTicks::UNDEFINED 1188894266307                       # Cumulative time (in ticks) in various power states (Tick)
system.mem_ctrl.dram.rank0.actEnergy     2812415703.551582                       # Energy for activate commands per rank (pJ) (Joule)
system.mem_ctrl.dram.rank0.preEnergy     3739070621.258278                       # Energy for precharge commands per rank (pJ) (Joule)
system.mem_ctrl.dram.rank0.readEnergy    20089028325.133106                       # Energy for read commands per rank (pJ) (Joule)
system.mem_ctrl.dram.rank0.writeEnergy   9830774756.542183                       # Energy for write commands per rank (pJ) (Joule)
system.mem_ctrl.dram.rank0.refreshEnergy 211545778295.471863                       # Energy for refresh commands per rank (pJ) (Joule)
system.mem_ctrl.dram.rank0.actBackEnergy 377504151059.234375                       # Energy for active background per rank (pJ) (Joule)
system.mem_ctrl.dram.rank0.preBackEnergy 486050490804.093689                       # Energy for precharge background per rank (pJ) (Joule)
system.mem_ctrl.dram.rank0.actPowerDownEnergy            0                       # Energy for active power-down per rank (pJ) (Joule)
system.mem_ctrl.dram.rank0.prePowerDownEnergy            0                       # Energy for precharge power-down per rank (pJ) (Joule)
system.mem_ctrl.dram.rank0.selfRefreshEnergy            0                       # Energy for self refresh per rank (pJ) (Joule)
system.mem_ctrl.dram.rank0.totalEnergy   1111571709566.744629                       # Total energy per rank (pJ) (Joule)
system.mem_ctrl.dram.rank0.averagePower    934.962630                       # Core power per rank (mW) (Watt)
system.mem_ctrl.dram.rank0.totalIdleTime            0                       # Total Idle time Per DRAM Rank (Tick)
system.mem_ctrl.dram.rank0.pwrStateTime::IDLE 740912485430                       # Time in different power states (Tick)
system.mem_ctrl.dram.rank0.pwrStateTime::REF  53444650000                       # Time in different power states (Tick)
system.mem_ctrl.dram.rank0.pwrStateTime::SREF            0                       # Time in different power states (Tick)
system.mem_ctrl.dram.rank0.pwrStateTime::PRE_PDN            0                       # Time in different power states (Tick)
system.mem_ctrl.dram.rank0.pwrStateTime::ACT 394537130877                       # Time in different power states (Tick)
system.mem_ctrl.dram.rank0.pwrStateTime::ACT_PDN            0                       # Time in different power states (Tick)
system.mem_ctrl.dram.rank1.actEnergy     2771535102.335658                       # Energy for activate commands per rank (pJ) (Joule)
system.mem_ctrl.dram.rank1.preEnergy     3684720386.052262                       # Energy for precharge commands per rank (pJ) (Joule)
system.mem_ctrl.dram.rank1.readEnergy    20009276558.605919                       # Energy for read commands per rank (pJ) (Joule)
system.mem_ctrl.dram.rank1.writeEnergy   9764016350.590260                       # Energy for write commands per rank (pJ) (Joule)
system.mem_ctrl.dram.rank1.refreshEnergy 211545778295.471863                       # Energy for refresh commands per rank (pJ) (Joule)
system.mem_ctrl.dram.rank1.actBackEnergy 365233590867.218567                       # Energy for active background per rank (pJ) (Joule)
system.mem_ctrl.dram.rank1.preBackEnergy 495478717844.132385                       # Energy for precharge background per rank (pJ) (Joule)
system.mem_ctrl.dram.rank1.actPowerDownEnergy            0                       # Energy for active power-down per rank (pJ) (Joule)
system.mem_ctrl.dram.rank1.prePowerDownEnergy            0                       # Energy for precharge power-down per rank (pJ) (Joule)
system.mem_ctrl.dram.rank1.selfRefreshEnergy            0                       # Energy for self refresh per rank (pJ) (Joule)
system.mem_ctrl.dram.rank1.totalEnergy   1108487635406.123535                       # Total energy per rank (pJ) (Joule)
system.mem_ctrl.dram.rank1.averagePower    932.368560                       # Core power per rank (mW) (Watt)
system.mem_ctrl.dram.rank1.totalIdleTime            0                       # Total Idle time Per DRAM Rank (Tick)
system.mem_ctrl.dram.rank1.pwrStateTime::IDLE 755386020277                       # Time in different power states (Tick)
system.mem_ctrl.dram.rank1.pwrStateTime::REF  53444650000                       # Time in different power states (Tick)
system.mem_ctrl.dram.rank1.pwrStateTime::SREF            0                       # Time in different power states (Tick)
system.mem_ctrl.dram.rank1.pwrStateTime::PRE_PDN            0                       # Time in different power states (Tick)
system.mem_ctrl.dram.rank1.pwrStateTime::ACT 380063596030                       # Time in different power states (Tick)
system.mem_ctrl.dram.rank1.pwrStateTime::ACT_PDN            0                       # Time in different power states (Tick)
system.mem_ctrl.power_state.pwrStateResidencyTicks::UNDEFINED 1188894266307                       # Cumulative time (in ticks) in various power states (Tick)
system.membus.transDist::ReadResp             4471656                       # Transaction distribution (Count)
system.membus.transDist::WritebackDirty       5213519                       # Transaction distribution (Count)
system.membus.transDist::CleanEvict           4288846                       # Transaction distribution (Count)
system.membus.transDist::ReadExReq            5064038                       # Transaction distribution (Count)
system.membus.transDist::ReadExResp           5064038                       # Transaction distribution (Count)
system.membus.transDist::ReadSharedReq        4471656                       # Transaction distribution (Count)
system.membus.pktCount_system.l2cache.mem_side_port::system.mem_ctrl.port     28573753                       # Packet count per connected requestor and responder (Count)
system.membus.pktCount::total                28573753                       # Packet count per connected requestor and responder (Count)
system.membus.pktSize_system.l2cache.mem_side_port::system.mem_ctrl.port    943949632                       # Cumulative packet size per connected requestor and responder (Byte)
system.membus.pktSize::total                943949632                       # Cumulative packet size per connected requestor and responder (Byte)
system.membus.snoops                                0                       # Total snoops (Count)
system.membus.snoopTraffic                          0                       # Total snoop traffic (Byte)
system.membus.snoopFanout::samples            9535694                       # Request fanout histogram (Count)
system.membus.snoopFanout::mean                     0                       # Request fanout histogram (Count)
system.membus.snoopFanout::stdev                    0                       # Request fanout histogram (Count)
system.membus.snoopFanout::underflows               0      0.00%      0.00% # Request fanout histogram (Count)
system.membus.snoopFanout::0                  9535694    100.00%    100.00% # Request fanout histogram (Count)
system.membus.snoopFanout::1                        0      0.00%    100.00% # Request fanout histogram (Count)
system.membus.snoopFanout::overflows                0      0.00%    100.00% # Request fanout histogram (Count)
system.membus.snoopFanout::min_value                0                       # Request fanout histogram (Count)
system.membus.snoopFanout::max_value                0                       # Request fanout histogram (Count)
system.membus.snoopFanout::total              9535694                       # Request fanout histogram (Count)
system.membus.power_state.pwrStateResidencyTicks::UNDEFINED 1188894266307                       # Cumulative time (in ticks) in various power states (Tick)
system.membus.reqLayer0.occupancy         22246504066                       # Layer occupancy (ticks) (Tick)
system.membus.reqLayer0.utilization               0.0                       # Layer utilization (Ratio)
system.membus.respLayer0.occupancy        24649015640                       # Layer occupancy (ticks) (Tick)
system.membus.respLayer0.utilization              0.0                       # Layer utilization (Ratio)
system.membus.snoop_filter.totRequests       19038059                       # Total number of requests made to the snoop filter. (Count)
system.membus.snoop_filter.hitSingleRequests      9502449                       # Number of requests hitting in the snoop filter with a single holder of the requested data. (Count)
system.membus.snoop_filter.hitMultiRequests            0                       # Number of requests hitting in the snoop filter with multiple (>1) holders of the requested data. (Count)
system.membus.snoop_filter.totSnoops                0                       # Total number of snoops made to the snoop filter. (Count)
system.membus.snoop_filter.hitSingleSnoops            0                       # Number of snoops hitting in the snoop filter with a single holder of the requested data. (Count)
system.membus.snoop_filter.hitMultiSnoops            0                       # Number of snoops hitting in the snoop filter with multiple (>1) holders of the requested data. (Count)
system.workload.inst.arm                            0                       # number of arm instructions executed (Count)
system.workload.inst.quiesce                        0                       # number of quiesce instructions executed (Count)

---------- End Simulation Statistics   ----------
