
---------- Begin Simulation Statistics ----------
simSeconds                                   0.574945                       # Number of seconds simulated (Second)
simTicks                                 574944611908                       # Number of ticks simulated (Tick)
finalTick                                574944611908                       # Number of ticks from beginning of simulation (restored from checkpoints and never reset) (Tick)
simFreq                                  1000000000000                       # The number of ticks per simulated second ((Tick/Second))
hostSeconds                                   4977.05                       # Real time elapsed on the host (Second)
hostTickRate                                115519097                       # The number of ticks simulated per host second (ticks/s) ((Tick/Second))
hostMemory                                    2296668                       # Number of bytes of host memory used (Byte)
simInsts                                   1000000000                       # Number of instructions simulated (Count)
simOps                                     1160112256                       # Number of ops (including micro ops) simulated (Count)
hostInstRate                                   200922                       # Simulator instruction rate (inst/s) ((Count/Second))
hostOpRate                                     233092                       # Simulator op (including micro ops) rate (op/s) ((Count/Second))
system.clk_domain.clock                           500                       # Clock period in ticks (Tick)
system.clk_domain.voltage_domain.voltage            1                       # Voltage in Volts (Volt)
system.cpu.numCycles                       1034073044                       # Number of cpu cycles simulated (Cycle)
system.cpu.numWorkItemsStarted                      0                       # Number of work items this cpu started (Count)
system.cpu.numWorkItemsCompleted                    0                       # Number of work items this cpu completed (Count)
system.cpu.instsAdded                      1634749820                       # Number of instructions added to the IQ (excludes non-spec) (Count)
system.cpu.nonSpecInstsAdded                     6735                       # Number of non-speculative instructions added to the IQ (Count)
system.cpu.instsIssued                     1470231660                       # Number of instructions issued (Count)
system.cpu.squashedInstsIssued                1447358                       # Number of squashed instructions issued (Count)
system.cpu.squashedInstsExamined            474644194                       # Number of squashed instructions iterated over during squash; mainly for profiling (Count)
system.cpu.squashedOperandsExamined        1232712595                       # Number of squashed operands that are examined and possibly removed from graph (Count)
system.cpu.squashedNonSpecRemoved                6196                       # Number of squashed non-spec instructions that were removed (Count)
system.cpu.numIssuedDist::samples          1034030128                       # Number of insts issued each cycle (Count)
system.cpu.numIssuedDist::mean               1.421846                       # Number of insts issued each cycle (Count)
system.cpu.numIssuedDist::stdev              1.952104                       # Number of insts issued each cycle (Count)
system.cpu.numIssuedDist::underflows                0      0.00%      0.00% # Number of insts issued each cycle (Count)
system.cpu.numIssuedDist::0                 559545567     54.11%     54.11% # Number of insts issued each cycle (Count)
system.cpu.numIssuedDist::1                 109856897     10.62%     64.74% # Number of insts issued each cycle (Count)
system.cpu.numIssuedDist::2                  96248285      9.31%     74.05% # Number of insts issued each cycle (Count)
system.cpu.numIssuedDist::3                  80234856      7.76%     81.80% # Number of insts issued each cycle (Count)
system.cpu.numIssuedDist::4                  93690883      9.06%     90.87% # Number of insts issued each cycle (Count)
system.cpu.numIssuedDist::5                  42034079      4.07%     94.93% # Number of insts issued each cycle (Count)
system.cpu.numIssuedDist::6                  32931075      3.18%     98.12% # Number of insts issued each cycle (Count)
system.cpu.numIssuedDist::7                  11254640      1.09%     99.20% # Number of insts issued each cycle (Count)
system.cpu.numIssuedDist::8                   8233846      0.80%    100.00% # Number of insts issued each cycle (Count)
system.cpu.numIssuedDist::overflows                 0      0.00%    100.00% # Number of insts issued each cycle (Count)
system.cpu.numIssuedDist::min_value                 0                       # Number of insts issued each cycle (Count)
system.cpu.numIssuedDist::max_value                 8                       # Number of insts issued each cycle (Count)
system.cpu.numIssuedDist::total            1034030128                       # Number of insts issued each cycle (Count)
system.cpu.statFuBusy::No_OpClass                   0      0.00%      0.00% # attempts to use FU when none available (Count)
system.cpu.statFuBusy::IntAlu                 2552769      4.74%      4.74% # attempts to use FU when none available (Count)
system.cpu.statFuBusy::IntMult                      0      0.00%      4.74% # attempts to use FU when none available (Count)
system.cpu.statFuBusy::IntDiv                       0      0.00%      4.74% # attempts to use FU when none available (Count)
system.cpu.statFuBusy::FloatAdd                     0      0.00%      4.74% # attempts to use FU when none available (Count)
system.cpu.statFuBusy::FloatCmp                     0      0.00%      4.74% # attempts to use FU when none available (Count)
system.cpu.statFuBusy::FloatCvt                     0      0.00%      4.74% # attempts to use FU when none available (Count)
system.cpu.statFuBusy::FloatMult                    0      0.00%      4.74% # attempts to use FU when none available (Count)
system.cpu.statFuBusy::FloatMultAcc                 0      0.00%      4.74% # attempts to use FU when none available (Count)
system.cpu.statFuBusy::FloatDiv                     0      0.00%      4.74% # attempts to use FU when none available (Count)
system.cpu.statFuBusy::FloatMisc                    0      0.00%      4.74% # attempts to use FU when none available (Count)
system.cpu.statFuBusy::FloatSqrt                    0      0.00%      4.74% # attempts to use FU when none available (Count)
system.cpu.statFuBusy::SimdAdd                      0      0.00%      4.74% # attempts to use FU when none available (Count)
system.cpu.statFuBusy::SimdAddAcc                   0      0.00%      4.74% # attempts to use FU when none available (Count)
system.cpu.statFuBusy::SimdAlu                      0      0.00%      4.74% # attempts to use FU when none available (Count)
system.cpu.statFuBusy::SimdCmp                      0      0.00%      4.74% # attempts to use FU when none available (Count)
system.cpu.statFuBusy::SimdCvt                      0      0.00%      4.74% # attempts to use FU when none available (Count)
system.cpu.statFuBusy::SimdMisc                     0      0.00%      4.74% # attempts to use FU when none available (Count)
system.cpu.statFuBusy::SimdMult                     0      0.00%      4.74% # attempts to use FU when none available (Count)
system.cpu.statFuBusy::SimdMultAcc                  0      0.00%      4.74% # attempts to use FU when none available (Count)
system.cpu.statFuBusy::SimdShift                    0      0.00%      4.74% # attempts to use FU when none available (Count)
system.cpu.statFuBusy::SimdShiftAcc                 0      0.00%      4.74% # attempts to use FU when none available (Count)
system.cpu.statFuBusy::SimdDiv                      0      0.00%      4.74% # attempts to use FU when none available (Count)
system.cpu.statFuBusy::SimdSqrt                     0      0.00%      4.74% # attempts to use FU when none available (Count)
system.cpu.statFuBusy::SimdFloatAdd                 0      0.00%      4.74% # attempts to use FU when none available (Count)
system.cpu.statFuBusy::SimdFloatAlu                 0      0.00%      4.74% # attempts to use FU when none available (Count)
system.cpu.statFuBusy::SimdFloatCmp                 0      0.00%      4.74% # attempts to use FU when none available (Count)
system.cpu.statFuBusy::SimdFloatCvt                 0      0.00%      4.74% # attempts to use FU when none available (Count)
system.cpu.statFuBusy::SimdFloatDiv                 0      0.00%      4.74% # attempts to use FU when none available (Count)
system.cpu.statFuBusy::SimdFloatMisc                0      0.00%      4.74% # attempts to use FU when none available (Count)
system.cpu.statFuBusy::SimdFloatMult                0      0.00%      4.74% # attempts to use FU when none available (Count)
system.cpu.statFuBusy::SimdFloatMultAcc             0      0.00%      4.74% # attempts to use FU when none available (Count)
system.cpu.statFuBusy::SimdFloatSqrt                0      0.00%      4.74% # attempts to use FU when none available (Count)
system.cpu.statFuBusy::SimdReduceAdd                0      0.00%      4.74% # attempts to use FU when none available (Count)
system.cpu.statFuBusy::SimdReduceAlu                0      0.00%      4.74% # attempts to use FU when none available (Count)
system.cpu.statFuBusy::SimdReduceCmp                0      0.00%      4.74% # attempts to use FU when none available (Count)
system.cpu.statFuBusy::SimdFloatReduceAdd            0      0.00%      4.74% # attempts to use FU when none available (Count)
system.cpu.statFuBusy::SimdFloatReduceCmp            0      0.00%      4.74% # attempts to use FU when none available (Count)
system.cpu.statFuBusy::SimdAes                      0      0.00%      4.74% # attempts to use FU when none available (Count)
system.cpu.statFuBusy::SimdAesMix                   0      0.00%      4.74% # attempts to use FU when none available (Count)
system.cpu.statFuBusy::SimdSha1Hash                 0      0.00%      4.74% # attempts to use FU when none available (Count)
system.cpu.statFuBusy::SimdSha1Hash2                0      0.00%      4.74% # attempts to use FU when none available (Count)
system.cpu.statFuBusy::SimdSha256Hash               0      0.00%      4.74% # attempts to use FU when none available (Count)
system.cpu.statFuBusy::SimdSha256Hash2              0      0.00%      4.74% # attempts to use FU when none available (Count)
system.cpu.statFuBusy::SimdShaSigma2                0      0.00%      4.74% # attempts to use FU when none available (Count)
system.cpu.statFuBusy::SimdShaSigma3                0      0.00%      4.74% # attempts to use FU when none available (Count)
system.cpu.statFuBusy::SimdPredAlu                  0      0.00%      4.74% # attempts to use FU when none available (Count)
system.cpu.statFuBusy::MemRead               42178311     78.37%     83.12% # attempts to use FU when none available (Count)
system.cpu.statFuBusy::MemWrite               9086604     16.88%    100.00% # attempts to use FU when none available (Count)
system.cpu.statFuBusy::FloatMemRead                 0      0.00%    100.00% # attempts to use FU when none available (Count)
system.cpu.statFuBusy::FloatMemWrite                0      0.00%    100.00% # attempts to use FU when none available (Count)
system.cpu.statFuBusy::IprAccess                    0      0.00%    100.00% # attempts to use FU when none available (Count)
system.cpu.statFuBusy::InstPrefetch                 0      0.00%    100.00% # attempts to use FU when none available (Count)
system.cpu.statIssuedInstType_0::No_OpClass            2      0.00%      0.00% # Number of instructions issued per FU type, per thread (Count)
system.cpu.statIssuedInstType_0::IntAlu     733597996     49.90%     49.90% # Number of instructions issued per FU type, per thread (Count)
system.cpu.statIssuedInstType_0::IntMult          879      0.00%     49.90% # Number of instructions issued per FU type, per thread (Count)
system.cpu.statIssuedInstType_0::IntDiv             0      0.00%     49.90% # Number of instructions issued per FU type, per thread (Count)
system.cpu.statIssuedInstType_0::FloatAdd            0      0.00%     49.90% # Number of instructions issued per FU type, per thread (Count)
system.cpu.statIssuedInstType_0::FloatCmp            0      0.00%     49.90% # Number of instructions issued per FU type, per thread (Count)
system.cpu.statIssuedInstType_0::FloatCvt            0      0.00%     49.90% # Number of instructions issued per FU type, per thread (Count)
system.cpu.statIssuedInstType_0::FloatMult            0      0.00%     49.90% # Number of instructions issued per FU type, per thread (Count)
system.cpu.statIssuedInstType_0::FloatMultAcc            0      0.00%     49.90% # Number of instructions issued per FU type, per thread (Count)
system.cpu.statIssuedInstType_0::FloatDiv            0      0.00%     49.90% # Number of instructions issued per FU type, per thread (Count)
system.cpu.statIssuedInstType_0::FloatMisc            0      0.00%     49.90% # Number of instructions issued per FU type, per thread (Count)
system.cpu.statIssuedInstType_0::FloatSqrt            0      0.00%     49.90% # Number of instructions issued per FU type, per thread (Count)
system.cpu.statIssuedInstType_0::SimdAdd            0      0.00%     49.90% # Number of instructions issued per FU type, per thread (Count)
system.cpu.statIssuedInstType_0::SimdAddAcc            0      0.00%     49.90% # Number of instructions issued per FU type, per thread (Count)
system.cpu.statIssuedInstType_0::SimdAlu            0      0.00%     49.90% # Number of instructions issued per FU type, per thread (Count)
system.cpu.statIssuedInstType_0::SimdCmp            0      0.00%     49.90% # Number of instructions issued per FU type, per thread (Count)
system.cpu.statIssuedInstType_0::SimdCvt            0      0.00%     49.90% # Number of instructions issued per FU type, per thread (Count)
system.cpu.statIssuedInstType_0::SimdMisc            0      0.00%     49.90% # Number of instructions issued per FU type, per thread (Count)
system.cpu.statIssuedInstType_0::SimdMult            0      0.00%     49.90% # Number of instructions issued per FU type, per thread (Count)
system.cpu.statIssuedInstType_0::SimdMultAcc            0      0.00%     49.90% # Number of instructions issued per FU type, per thread (Count)
system.cpu.statIssuedInstType_0::SimdShift            0      0.00%     49.90% # Number of instructions issued per FU type, per thread (Count)
system.cpu.statIssuedInstType_0::SimdShiftAcc            0      0.00%     49.90% # Number of instructions issued per FU type, per thread (Count)
system.cpu.statIssuedInstType_0::SimdDiv            0      0.00%     49.90% # Number of instructions issued per FU type, per thread (Count)
system.cpu.statIssuedInstType_0::SimdSqrt            0      0.00%     49.90% # Number of instructions issued per FU type, per thread (Count)
system.cpu.statIssuedInstType_0::SimdFloatAdd            0      0.00%     49.90% # Number of instructions issued per FU type, per thread (Count)
system.cpu.statIssuedInstType_0::SimdFloatAlu            0      0.00%     49.90% # Number of instructions issued per FU type, per thread (Count)
system.cpu.statIssuedInstType_0::SimdFloatCmp            0      0.00%     49.90% # Number of instructions issued per FU type, per thread (Count)
system.cpu.statIssuedInstType_0::SimdFloatCvt           38      0.00%     49.90% # Number of instructions issued per FU type, per thread (Count)
system.cpu.statIssuedInstType_0::SimdFloatDiv            6      0.00%     49.90% # Number of instructions issued per FU type, per thread (Count)
system.cpu.statIssuedInstType_0::SimdFloatMisc           23      0.00%     49.90% # Number of instructions issued per FU type, per thread (Count)
system.cpu.statIssuedInstType_0::SimdFloatMult           10      0.00%     49.90% # Number of instructions issued per FU type, per thread (Count)
system.cpu.statIssuedInstType_0::SimdFloatMultAcc            0      0.00%     49.90% # Number of instructions issued per FU type, per thread (Count)
system.cpu.statIssuedInstType_0::SimdFloatSqrt            0      0.00%     49.90% # Number of instructions issued per FU type, per thread (Count)
system.cpu.statIssuedInstType_0::SimdReduceAdd            0      0.00%     49.90% # Number of instructions issued per FU type, per thread (Count)
system.cpu.statIssuedInstType_0::SimdReduceAlu            0      0.00%     49.90% # Number of instructions issued per FU type, per thread (Count)
system.cpu.statIssuedInstType_0::SimdReduceCmp            0      0.00%     49.90% # Number of instructions issued per FU type, per thread (Count)
system.cpu.statIssuedInstType_0::SimdFloatReduceAdd            0      0.00%     49.90% # Number of instructions issued per FU type, per thread (Count)
system.cpu.statIssuedInstType_0::SimdFloatReduceCmp            0      0.00%     49.90% # Number of instructions issued per FU type, per thread (Count)
system.cpu.statIssuedInstType_0::SimdAes            0      0.00%     49.90% # Number of instructions issued per FU type, per thread (Count)
system.cpu.statIssuedInstType_0::SimdAesMix            0      0.00%     49.90% # Number of instructions issued per FU type, per thread (Count)
system.cpu.statIssuedInstType_0::SimdSha1Hash            0      0.00%     49.90% # Number of instructions issued per FU type, per thread (Count)
system.cpu.statIssuedInstType_0::SimdSha1Hash2            0      0.00%     49.90% # Number of instructions issued per FU type, per thread (Count)
system.cpu.statIssuedInstType_0::SimdSha256Hash            0      0.00%     49.90% # Number of instructions issued per FU type, per thread (Count)
system.cpu.statIssuedInstType_0::SimdSha256Hash2            0      0.00%     49.90% # Number of instructions issued per FU type, per thread (Count)
system.cpu.statIssuedInstType_0::SimdShaSigma2            0      0.00%     49.90% # Number of instructions issued per FU type, per thread (Count)
system.cpu.statIssuedInstType_0::SimdShaSigma3            0      0.00%     49.90% # Number of instructions issued per FU type, per thread (Count)
system.cpu.statIssuedInstType_0::SimdPredAlu            0      0.00%     49.90% # Number of instructions issued per FU type, per thread (Count)
system.cpu.statIssuedInstType_0::MemRead    500425416     34.04%     83.93% # Number of instructions issued per FU type, per thread (Count)
system.cpu.statIssuedInstType_0::MemWrite    236207290     16.07%    100.00% # Number of instructions issued per FU type, per thread (Count)
system.cpu.statIssuedInstType_0::FloatMemRead            0      0.00%    100.00% # Number of instructions issued per FU type, per thread (Count)
system.cpu.statIssuedInstType_0::FloatMemWrite            0      0.00%    100.00% # Number of instructions issued per FU type, per thread (Count)
system.cpu.statIssuedInstType_0::IprAccess            0      0.00%    100.00% # Number of instructions issued per FU type, per thread (Count)
system.cpu.statIssuedInstType_0::InstPrefetch            0      0.00%    100.00% # Number of instructions issued per FU type, per thread (Count)
system.cpu.statIssuedInstType_0::total     1470231660                       # Number of instructions issued per FU type, per thread (Count)
system.cpu.issueRate                         1.421787                       # Inst issue rate ((Count/Cycle))
system.cpu.fuBusy                            53817684                       # FU busy when requested (Count)
system.cpu.fuBusyRate                        0.036605                       # FU busy rate (busy events/executed inst) ((Count/Count))
system.cpu.intInstQueueReads               4029758484                       # Number of integer instruction queue reads (Count)
system.cpu.intInstQueueWrites              2109702230                       # Number of integer instruction queue writes (Count)
system.cpu.intInstQueueWakeupAccesses      1375556482                       # Number of integer instruction queue wakeup accesses (Count)
system.cpu.fpInstQueueReads                         0                       # Number of floating instruction queue reads (Count)
system.cpu.fpInstQueueWrites                        0                       # Number of floating instruction queue writes (Count)
system.cpu.fpInstQueueWakeupAccesses                0                       # Number of floating instruction queue wakeup accesses (Count)
system.cpu.vecInstQueueReads                        0                       # Number of vector instruction queue reads (Count)
system.cpu.vecInstQueueWrites                       0                       # Number of vector instruction queue writes (Count)
system.cpu.vecInstQueueWakeupAccesses               0                       # Number of vector instruction queue wakeup accesses (Count)
system.cpu.intAluAccesses                  1524049342                       # Number of integer alu accesses (Count)
system.cpu.fpAluAccesses                            0                       # Number of floating point alu accesses (Count)
system.cpu.vecAluAccesses                           0                       # Number of vector alu accesses (Count)
system.cpu.numInsts                        1452109398                       # Number of executed instructions (Count)
system.cpu.numLoadInsts                     491871539                       # Number of load instructions executed (Count)
system.cpu.numSquashedInsts                  18122256                       # Number of squashed instructions skipped in execute (Count)
system.cpu.numSwp                                   0                       # Number of swp insts executed (Count)
system.cpu.numNop                                 299                       # Number of nop insts executed (Count)
system.cpu.numRefs                          725113182                       # Number of memory reference insts executed (Count)
system.cpu.numBranches                      180269988                       # Number of branches executed (Count)
system.cpu.numStoreInsts                    233241643                       # Number of stores executed (Count)
system.cpu.numRate                           1.404262                       # Inst execution rate ((Count/Cycle))
system.cpu.timesIdled                             542                       # Number of times that the entire CPU went into an idle state and unscheduled itself (Count)
system.cpu.idleCycles                           42916                       # Total number of cycles that the CPU has spent unscheduled due to idling (Cycle)
system.cpu.committedInsts                  1000000000                       # Number of Instructions Simulated (Count)
system.cpu.committedOps                    1160112256                       # Number of Ops (including micro ops) Simulated (Count)
system.cpu.cpi                               1.034073                       # CPI: Cycles Per Instruction ((Cycle/Count))
system.cpu.totalCpi                          1.034073                       # CPI: Total CPI of All Threads ((Cycle/Count))
system.cpu.ipc                               0.967050                       # IPC: Instructions Per Cycle ((Count/Cycle))
system.cpu.totalIpc                          0.967050                       # IPC: Total IPC of All Threads ((Count/Cycle))
system.cpu.intRegfileReads                 1836252142                       # Number of integer regfile reads (Count)
system.cpu.intRegfileWrites                 871787979                       # Number of integer regfile writes (Count)
system.cpu.vecRegfileReads                        188                       # number of vector regfile reads (Count)
system.cpu.vecRegfileWrites                       711                       # number of vector regfile writes (Count)
system.cpu.ccRegfileReads                  5625851060                       # number of cc regfile reads (Count)
system.cpu.ccRegfileWrites                  739364367                       # number of cc regfile writes (Count)
system.cpu.miscRegfileReads                 651850450                       # number of misc regfile reads (Count)
system.cpu.miscRegfileWrites                      158                       # number of misc regfile writes (Count)
system.cpu.MemDepUnit__0.insertedLoads      504322321                       # Number of loads inserted to the mem dependence unit. (Count)
system.cpu.MemDepUnit__0.insertedStores     277087631                       # Number of stores inserted to the mem dependence unit. (Count)
system.cpu.MemDepUnit__0.conflictingLoads    156293941                       # Number of conflicting loads. (Count)
system.cpu.MemDepUnit__0.conflictingStores    110198613                       # Number of conflicting stores. (Count)
system.cpu.MemDepUnit__1.insertedLoads              0                       # Number of loads inserted to the mem dependence unit. (Count)
system.cpu.MemDepUnit__1.insertedStores             0                       # Number of stores inserted to the mem dependence unit. (Count)
system.cpu.MemDepUnit__1.conflictingLoads            0                       # Number of conflicting loads. (Count)
system.cpu.MemDepUnit__1.conflictingStores            0                       # Number of conflicting stores. (Count)
system.cpu.MemDepUnit__2.insertedLoads              0                       # Number of loads inserted to the mem dependence unit. (Count)
system.cpu.MemDepUnit__2.insertedStores             0                       # Number of stores inserted to the mem dependence unit. (Count)
system.cpu.MemDepUnit__2.conflictingLoads            0                       # Number of conflicting loads. (Count)
system.cpu.MemDepUnit__2.conflictingStores            0                       # Number of conflicting stores. (Count)
system.cpu.MemDepUnit__3.insertedLoads              0                       # Number of loads inserted to the mem dependence unit. (Count)
system.cpu.MemDepUnit__3.insertedStores             0                       # Number of stores inserted to the mem dependence unit. (Count)
system.cpu.MemDepUnit__3.conflictingLoads            0                       # Number of conflicting loads. (Count)
system.cpu.MemDepUnit__3.conflictingStores            0                       # Number of conflicting stores. (Count)
system.cpu.branchPred.lookups               256217123                       # Number of BP lookups (Count)
system.cpu.branchPred.condPredicted         212057491                       # Number of conditional branches predicted (Count)
system.cpu.branchPred.condIncorrect          11076626                       # Number of conditional branches incorrect (Count)
system.cpu.branchPred.BTBLookups            142763716                       # Number of BTB lookups (Count)
system.cpu.branchPred.BTBHits               142658632                       # Number of BTB hits (Count)
system.cpu.branchPred.BTBHitRatio            0.999264                       # BTB Hit Ratio (Ratio)
system.cpu.branchPred.RASUsed                 9502473                       # Number of times the RAS was used to get a target. (Count)
system.cpu.branchPred.RASIncorrect                  8                       # Number of incorrect RAS predictions. (Count)
system.cpu.branchPred.indirectLookups            2415                       # Number of indirect predictor lookups. (Count)
system.cpu.branchPred.indirectHits               2076                       # Number of indirect target hits. (Count)
system.cpu.branchPred.indirectMisses              339                       # Number of indirect misses. (Count)
system.cpu.branchPred.indirectMispredicted           96                       # Number of mispredicted indirect branches. (Count)
system.cpu.commit.commitSquashedInsts       474098055                       # The number of squashed insts skipped by commit (Count)
system.cpu.commit.commitNonSpecStalls             539                       # The number of times commit has been forced to stall to communicate backwards (Count)
system.cpu.commit.branchMispredicts          10295368                       # The number of times a branch was mispredicted (Count)
system.cpu.commit.numCommittedDist::samples    968814141                       # Number of insts commited each cycle (Count)
system.cpu.commit.numCommittedDist::mean     1.197456                       # Number of insts commited each cycle (Count)
system.cpu.commit.numCommittedDist::stdev     2.234980                       # Number of insts commited each cycle (Count)
system.cpu.commit.numCommittedDist::underflows            0      0.00%      0.00% # Number of insts commited each cycle (Count)
system.cpu.commit.numCommittedDist::0       631240876     65.16%     65.16% # Number of insts commited each cycle (Count)
system.cpu.commit.numCommittedDist::1       117403670     12.12%     77.27% # Number of insts commited each cycle (Count)
system.cpu.commit.numCommittedDist::2        52384603      5.41%     82.68% # Number of insts commited each cycle (Count)
system.cpu.commit.numCommittedDist::3        35871563      3.70%     86.38% # Number of insts commited each cycle (Count)
system.cpu.commit.numCommittedDist::4        31538243      3.26%     89.64% # Number of insts commited each cycle (Count)
system.cpu.commit.numCommittedDist::5        16435393      1.70%     91.34% # Number of insts commited each cycle (Count)
system.cpu.commit.numCommittedDist::6        16980486      1.75%     93.09% # Number of insts commited each cycle (Count)
system.cpu.commit.numCommittedDist::7        15562425      1.61%     94.69% # Number of insts commited each cycle (Count)
system.cpu.commit.numCommittedDist::8        51396882      5.31%    100.00% # Number of insts commited each cycle (Count)
system.cpu.commit.numCommittedDist::overflows            0      0.00%    100.00% # Number of insts commited each cycle (Count)
system.cpu.commit.numCommittedDist::min_value            0                       # Number of insts commited each cycle (Count)
system.cpu.commit.numCommittedDist::max_value            8                       # Number of insts commited each cycle (Count)
system.cpu.commit.numCommittedDist::total    968814141                       # Number of insts commited each cycle (Count)
system.cpu.commit.instsCommitted           1000000193                       # Number of instructions committed (Count)
system.cpu.commit.opsCommitted             1160112449                       # Number of ops (including micro ops) committed (Count)
system.cpu.commit.memRefs                   581891603                       # Number of memory references committed (Count)
system.cpu.commit.loads                     366711315                       # Number of loads committed (Count)
system.cpu.commit.amos                              0                       # Number of atomic instructions committed (Count)
system.cpu.commit.membars                          79                       # Number of memory barriers committed (Count)
system.cpu.commit.branches                  142882388                       # Number of branches committed (Count)
system.cpu.commit.vectorInstructions                0                       # Number of committed Vector instructions. (Count)
system.cpu.commit.floating                          0                       # Number of committed floating point instructions. (Count)
system.cpu.commit.integer                  1016066420                       # Number of committed integer instructions. (Count)
system.cpu.commit.functionCalls               4825530                       # Number of function calls committed. (Count)
system.cpu.commit.committedInstType_0::No_OpClass            0      0.00%      0.00% # Class of committed instruction (Count)
system.cpu.commit.committedInstType_0::IntAlu    578220034     49.84%     49.84% # Class of committed instruction (Count)
system.cpu.commit.committedInstType_0::IntMult          809      0.00%     49.84% # Class of committed instruction (Count)
system.cpu.commit.committedInstType_0::IntDiv            0      0.00%     49.84% # Class of committed instruction (Count)
system.cpu.commit.committedInstType_0::FloatAdd            0      0.00%     49.84% # Class of committed instruction (Count)
system.cpu.commit.committedInstType_0::FloatCmp            0      0.00%     49.84% # Class of committed instruction (Count)
system.cpu.commit.committedInstType_0::FloatCvt            0      0.00%     49.84% # Class of committed instruction (Count)
system.cpu.commit.committedInstType_0::FloatMult            0      0.00%     49.84% # Class of committed instruction (Count)
system.cpu.commit.committedInstType_0::FloatMultAcc            0      0.00%     49.84% # Class of committed instruction (Count)
system.cpu.commit.committedInstType_0::FloatDiv            0      0.00%     49.84% # Class of committed instruction (Count)
system.cpu.commit.committedInstType_0::FloatMisc            0      0.00%     49.84% # Class of committed instruction (Count)
system.cpu.commit.committedInstType_0::FloatSqrt            0      0.00%     49.84% # Class of committed instruction (Count)
system.cpu.commit.committedInstType_0::SimdAdd            0      0.00%     49.84% # Class of committed instruction (Count)
system.cpu.commit.committedInstType_0::SimdAddAcc            0      0.00%     49.84% # Class of committed instruction (Count)
system.cpu.commit.committedInstType_0::SimdAlu            0      0.00%     49.84% # Class of committed instruction (Count)
system.cpu.commit.committedInstType_0::SimdCmp            0      0.00%     49.84% # Class of committed instruction (Count)
system.cpu.commit.committedInstType_0::SimdCvt            0      0.00%     49.84% # Class of committed instruction (Count)
system.cpu.commit.committedInstType_0::SimdMisc            0      0.00%     49.84% # Class of committed instruction (Count)
system.cpu.commit.committedInstType_0::SimdMult            0      0.00%     49.84% # Class of committed instruction (Count)
system.cpu.commit.committedInstType_0::SimdMultAcc            0      0.00%     49.84% # Class of committed instruction (Count)
system.cpu.commit.committedInstType_0::SimdShift            0      0.00%     49.84% # Class of committed instruction (Count)
system.cpu.commit.committedInstType_0::SimdShiftAcc            0      0.00%     49.84% # Class of committed instruction (Count)
system.cpu.commit.committedInstType_0::SimdDiv            0      0.00%     49.84% # Class of committed instruction (Count)
system.cpu.commit.committedInstType_0::SimdSqrt            0      0.00%     49.84% # Class of committed instruction (Count)
system.cpu.commit.committedInstType_0::SimdFloatAdd            0      0.00%     49.84% # Class of committed instruction (Count)
system.cpu.commit.committedInstType_0::SimdFloatAlu            0      0.00%     49.84% # Class of committed instruction (Count)
system.cpu.commit.committedInstType_0::SimdFloatCmp            0      0.00%     49.84% # Class of committed instruction (Count)
system.cpu.commit.committedInstType_0::SimdFloatCvt            0      0.00%     49.84% # Class of committed instruction (Count)
system.cpu.commit.committedInstType_0::SimdFloatDiv            0      0.00%     49.84% # Class of committed instruction (Count)
system.cpu.commit.committedInstType_0::SimdFloatMisc            3      0.00%     49.84% # Class of committed instruction (Count)
system.cpu.commit.committedInstType_0::SimdFloatMult            0      0.00%     49.84% # Class of committed instruction (Count)
system.cpu.commit.committedInstType_0::SimdFloatMultAcc            0      0.00%     49.84% # Class of committed instruction (Count)
system.cpu.commit.committedInstType_0::SimdFloatSqrt            0      0.00%     49.84% # Class of committed instruction (Count)
system.cpu.commit.committedInstType_0::SimdReduceAdd            0      0.00%     49.84% # Class of committed instruction (Count)
system.cpu.commit.committedInstType_0::SimdReduceAlu            0      0.00%     49.84% # Class of committed instruction (Count)
system.cpu.commit.committedInstType_0::SimdReduceCmp            0      0.00%     49.84% # Class of committed instruction (Count)
system.cpu.commit.committedInstType_0::SimdFloatReduceAdd            0      0.00%     49.84% # Class of committed instruction (Count)
system.cpu.commit.committedInstType_0::SimdFloatReduceCmp            0      0.00%     49.84% # Class of committed instruction (Count)
system.cpu.commit.committedInstType_0::SimdAes            0      0.00%     49.84% # Class of committed instruction (Count)
system.cpu.commit.committedInstType_0::SimdAesMix            0      0.00%     49.84% # Class of committed instruction (Count)
system.cpu.commit.committedInstType_0::SimdSha1Hash            0      0.00%     49.84% # Class of committed instruction (Count)
system.cpu.commit.committedInstType_0::SimdSha1Hash2            0      0.00%     49.84% # Class of committed instruction (Count)
system.cpu.commit.committedInstType_0::SimdSha256Hash            0      0.00%     49.84% # Class of committed instruction (Count)
system.cpu.commit.committedInstType_0::SimdSha256Hash2            0      0.00%     49.84% # Class of committed instruction (Count)
system.cpu.commit.committedInstType_0::SimdShaSigma2            0      0.00%     49.84% # Class of committed instruction (Count)
system.cpu.commit.committedInstType_0::SimdShaSigma3            0      0.00%     49.84% # Class of committed instruction (Count)
system.cpu.commit.committedInstType_0::SimdPredAlu            0      0.00%     49.84% # Class of committed instruction (Count)
system.cpu.commit.committedInstType_0::MemRead    366711315     31.61%     81.45% # Class of committed instruction (Count)
system.cpu.commit.committedInstType_0::MemWrite    215180288     18.55%    100.00% # Class of committed instruction (Count)
system.cpu.commit.committedInstType_0::FloatMemRead            0      0.00%    100.00% # Class of committed instruction (Count)
system.cpu.commit.committedInstType_0::FloatMemWrite            0      0.00%    100.00% # Class of committed instruction (Count)
system.cpu.commit.committedInstType_0::IprAccess            0      0.00%    100.00% # Class of committed instruction (Count)
system.cpu.commit.committedInstType_0::InstPrefetch            0      0.00%    100.00% # Class of committed instruction (Count)
system.cpu.commit.committedInstType_0::total   1160112449                       # Class of committed instruction (Count)
system.cpu.commit.commitEligibleSamples      51396882                       # number cycles where commit BW limit reached (Cycle)
system.cpu.dcache.demandHits::cpu.data      513710750                       # number of demand (read+write) hits (Count)
system.cpu.dcache.demandHits::total         513710750                       # number of demand (read+write) hits (Count)
system.cpu.dcache.overallHits::cpu.data     513725726                       # number of overall hits (Count)
system.cpu.dcache.overallHits::total        513725726                       # number of overall hits (Count)
system.cpu.dcache.demandMisses::cpu.data     86344091                       # number of demand (read+write) misses (Count)
system.cpu.dcache.demandMisses::total        86344091                       # number of demand (read+write) misses (Count)
system.cpu.dcache.overallMisses::cpu.data     94000672                       # number of overall misses (Count)
system.cpu.dcache.overallMisses::total       94000672                       # number of overall misses (Count)
system.cpu.dcache.demandMissLatency::cpu.data 3924484794982                       # number of demand (read+write) miss ticks (Tick)
system.cpu.dcache.demandMissLatency::total 3924484794982                       # number of demand (read+write) miss ticks (Tick)
system.cpu.dcache.overallMissLatency::cpu.data 3924484794982                       # number of overall miss ticks (Tick)
system.cpu.dcache.overallMissLatency::total 3924484794982                       # number of overall miss ticks (Tick)
system.cpu.dcache.demandAccesses::cpu.data    600054841                       # number of demand (read+write) accesses (Count)
system.cpu.dcache.demandAccesses::total     600054841                       # number of demand (read+write) accesses (Count)
system.cpu.dcache.overallAccesses::cpu.data    607726398                       # number of overall (read+write) accesses (Count)
system.cpu.dcache.overallAccesses::total    607726398                       # number of overall (read+write) accesses (Count)
system.cpu.dcache.demandMissRate::cpu.data     0.143894                       # miss rate for demand accesses (Ratio)
system.cpu.dcache.demandMissRate::total      0.143894                       # miss rate for demand accesses (Ratio)
system.cpu.dcache.overallMissRate::cpu.data     0.154676                       # miss rate for overall accesses (Ratio)
system.cpu.dcache.overallMissRate::total     0.154676                       # miss rate for overall accesses (Ratio)
system.cpu.dcache.demandAvgMissLatency::cpu.data 45451.689276                       # average overall miss latency in ticks ((Tick/Count))
system.cpu.dcache.demandAvgMissLatency::total 45451.689276                       # average overall miss latency in ticks ((Tick/Count))
system.cpu.dcache.overallAvgMissLatency::cpu.data 41749.539780                       # average overall miss latency ((Tick/Count))
system.cpu.dcache.overallAvgMissLatency::total 41749.539780                       # average overall miss latency ((Tick/Count))
system.cpu.dcache.blockedCycles::no_mshrs    311578226                       # number of cycles access was blocked (Cycle)
system.cpu.dcache.blockedCycles::no_targets        22635                       # number of cycles access was blocked (Cycle)
system.cpu.dcache.blockedCauses::no_mshrs      7141404                       # number of times access was blocked (Count)
system.cpu.dcache.blockedCauses::no_targets          273                       # number of times access was blocked (Count)
system.cpu.dcache.avgBlocked::no_mshrs      43.629828                       # average number of cycles each access was blocked ((Cycle/Count))
system.cpu.dcache.avgBlocked::no_targets    82.912088                       # average number of cycles each access was blocked ((Cycle/Count))
system.cpu.dcache.writebacks::writebacks     10700154                       # number of writebacks (Count)
system.cpu.dcache.writebacks::total          10700154                       # number of writebacks (Count)
system.cpu.dcache.demandMshrHits::cpu.data     67769375                       # number of demand (read+write) MSHR hits (Count)
system.cpu.dcache.demandMshrHits::total      67769375                       # number of demand (read+write) MSHR hits (Count)
system.cpu.dcache.overallMshrHits::cpu.data     67769375                       # number of overall MSHR hits (Count)
system.cpu.dcache.overallMshrHits::total     67769375                       # number of overall MSHR hits (Count)
system.cpu.dcache.demandMshrMisses::cpu.data     18574716                       # number of demand (read+write) MSHR misses (Count)
system.cpu.dcache.demandMshrMisses::total     18574716                       # number of demand (read+write) MSHR misses (Count)
system.cpu.dcache.overallMshrMisses::cpu.data     22403479                       # number of overall MSHR misses (Count)
system.cpu.dcache.overallMshrMisses::total     22403479                       # number of overall MSHR misses (Count)
system.cpu.dcache.demandMshrMissLatency::cpu.data 663319155811                       # number of demand (read+write) MSHR miss ticks (Tick)
system.cpu.dcache.demandMshrMissLatency::total 663319155811                       # number of demand (read+write) MSHR miss ticks (Tick)
system.cpu.dcache.overallMshrMissLatency::cpu.data 968665887979                       # number of overall MSHR miss ticks (Tick)
system.cpu.dcache.overallMshrMissLatency::total 968665887979                       # number of overall MSHR miss ticks (Tick)
system.cpu.dcache.demandMshrMissRate::cpu.data     0.030955                       # mshr miss ratio for demand accesses (Ratio)
system.cpu.dcache.demandMshrMissRate::total     0.030955                       # mshr miss ratio for demand accesses (Ratio)
system.cpu.dcache.overallMshrMissRate::cpu.data     0.036864                       # mshr miss ratio for overall accesses (Ratio)
system.cpu.dcache.overallMshrMissRate::total     0.036864                       # mshr miss ratio for overall accesses (Ratio)
system.cpu.dcache.demandAvgMshrMissLatency::cpu.data 35710.863941                       # average overall mshr miss latency ((Tick/Count))
system.cpu.dcache.demandAvgMshrMissLatency::total 35710.863941                       # average overall mshr miss latency ((Tick/Count))
system.cpu.dcache.overallAvgMshrMissLatency::cpu.data 43237.297563                       # average overall mshr miss latency ((Tick/Count))
system.cpu.dcache.overallAvgMshrMissLatency::total 43237.297563                       # average overall mshr miss latency ((Tick/Count))
system.cpu.dcache.replacements               22402969                       # number of replacements (Count)
system.cpu.dcache.LoadLockedReq.hits::cpu.data           37                       # number of LoadLockedReq hits (Count)
system.cpu.dcache.LoadLockedReq.hits::total           37                       # number of LoadLockedReq hits (Count)
system.cpu.dcache.LoadLockedReq.misses::cpu.data            2                       # number of LoadLockedReq misses (Count)
system.cpu.dcache.LoadLockedReq.misses::total            2                       # number of LoadLockedReq misses (Count)
system.cpu.dcache.LoadLockedReq.missLatency::cpu.data       133440                       # number of LoadLockedReq miss ticks (Tick)
system.cpu.dcache.LoadLockedReq.missLatency::total       133440                       # number of LoadLockedReq miss ticks (Tick)
system.cpu.dcache.LoadLockedReq.accesses::cpu.data           39                       # number of LoadLockedReq accesses(hits+misses) (Count)
system.cpu.dcache.LoadLockedReq.accesses::total           39                       # number of LoadLockedReq accesses(hits+misses) (Count)
system.cpu.dcache.LoadLockedReq.missRate::cpu.data     0.051282                       # miss rate for LoadLockedReq accesses (Ratio)
system.cpu.dcache.LoadLockedReq.missRate::total     0.051282                       # miss rate for LoadLockedReq accesses (Ratio)
system.cpu.dcache.LoadLockedReq.avgMissLatency::cpu.data        66720                       # average LoadLockedReq miss latency ((Tick/Count))
system.cpu.dcache.LoadLockedReq.avgMissLatency::total        66720                       # average LoadLockedReq miss latency ((Tick/Count))
system.cpu.dcache.LoadLockedReq.mshrMisses::cpu.data            2                       # number of LoadLockedReq MSHR misses (Count)
system.cpu.dcache.LoadLockedReq.mshrMisses::total            2                       # number of LoadLockedReq MSHR misses (Count)
system.cpu.dcache.LoadLockedReq.mshrMissLatency::cpu.data       130760                       # number of LoadLockedReq MSHR miss ticks (Tick)
system.cpu.dcache.LoadLockedReq.mshrMissLatency::total       130760                       # number of LoadLockedReq MSHR miss ticks (Tick)
system.cpu.dcache.LoadLockedReq.mshrMissRate::cpu.data     0.051282                       # mshr miss rate for LoadLockedReq accesses (Ratio)
system.cpu.dcache.LoadLockedReq.mshrMissRate::total     0.051282                       # mshr miss rate for LoadLockedReq accesses (Ratio)
system.cpu.dcache.LoadLockedReq.avgMshrMissLatency::cpu.data        65380                       # average LoadLockedReq mshr miss latency ((Tick/Count))
system.cpu.dcache.LoadLockedReq.avgMshrMissLatency::total        65380                       # average LoadLockedReq mshr miss latency ((Tick/Count))
system.cpu.dcache.ReadReq.hits::cpu.data    366705158                       # number of ReadReq hits (Count)
system.cpu.dcache.ReadReq.hits::total       366705158                       # number of ReadReq hits (Count)
system.cpu.dcache.ReadReq.misses::cpu.data     20099392                       # number of ReadReq misses (Count)
system.cpu.dcache.ReadReq.misses::total      20099392                       # number of ReadReq misses (Count)
system.cpu.dcache.ReadReq.missLatency::cpu.data 400786524988                       # number of ReadReq miss ticks (Tick)
system.cpu.dcache.ReadReq.missLatency::total 400786524988                       # number of ReadReq miss ticks (Tick)
system.cpu.dcache.ReadReq.accesses::cpu.data    386804550                       # number of ReadReq accesses(hits+misses) (Count)
system.cpu.dcache.ReadReq.accesses::total    386804550                       # number of ReadReq accesses(hits+misses) (Count)
system.cpu.dcache.ReadReq.missRate::cpu.data     0.051963                       # miss rate for ReadReq accesses (Ratio)
system.cpu.dcache.ReadReq.missRate::total     0.051963                       # miss rate for ReadReq accesses (Ratio)
system.cpu.dcache.ReadReq.avgMissLatency::cpu.data 19940.231276                       # average ReadReq miss latency ((Tick/Count))
system.cpu.dcache.ReadReq.avgMissLatency::total 19940.231276                       # average ReadReq miss latency ((Tick/Count))
system.cpu.dcache.ReadReq.mshrHits::cpu.data      9088656                       # number of ReadReq MSHR hits (Count)
system.cpu.dcache.ReadReq.mshrHits::total      9088656                       # number of ReadReq MSHR hits (Count)
system.cpu.dcache.ReadReq.mshrMisses::cpu.data     11010736                       # number of ReadReq MSHR misses (Count)
system.cpu.dcache.ReadReq.mshrMisses::total     11010736                       # number of ReadReq MSHR misses (Count)
system.cpu.dcache.ReadReq.mshrMissLatency::cpu.data 185044248036                       # number of ReadReq MSHR miss ticks (Tick)
system.cpu.dcache.ReadReq.mshrMissLatency::total 185044248036                       # number of ReadReq MSHR miss ticks (Tick)
system.cpu.dcache.ReadReq.mshrMissRate::cpu.data     0.028466                       # mshr miss rate for ReadReq accesses (Ratio)
system.cpu.dcache.ReadReq.mshrMissRate::total     0.028466                       # mshr miss rate for ReadReq accesses (Ratio)
system.cpu.dcache.ReadReq.avgMshrMissLatency::cpu.data 16805.801904                       # average ReadReq mshr miss latency ((Tick/Count))
system.cpu.dcache.ReadReq.avgMshrMissLatency::total 16805.801904                       # average ReadReq mshr miss latency ((Tick/Count))
system.cpu.dcache.SoftPFReq.hits::cpu.data        14976                       # number of SoftPFReq hits (Count)
system.cpu.dcache.SoftPFReq.hits::total         14976                       # number of SoftPFReq hits (Count)
system.cpu.dcache.SoftPFReq.misses::cpu.data      7656581                       # number of SoftPFReq misses (Count)
system.cpu.dcache.SoftPFReq.misses::total      7656581                       # number of SoftPFReq misses (Count)
system.cpu.dcache.SoftPFReq.accesses::cpu.data      7671557                       # number of SoftPFReq accesses(hits+misses) (Count)
system.cpu.dcache.SoftPFReq.accesses::total      7671557                       # number of SoftPFReq accesses(hits+misses) (Count)
system.cpu.dcache.SoftPFReq.missRate::cpu.data     0.998048                       # miss rate for SoftPFReq accesses (Ratio)
system.cpu.dcache.SoftPFReq.missRate::total     0.998048                       # miss rate for SoftPFReq accesses (Ratio)
system.cpu.dcache.SoftPFReq.mshrMisses::cpu.data      3828763                       # number of SoftPFReq MSHR misses (Count)
system.cpu.dcache.SoftPFReq.mshrMisses::total      3828763                       # number of SoftPFReq MSHR misses (Count)
system.cpu.dcache.SoftPFReq.mshrMissLatency::cpu.data 305346732168                       # number of SoftPFReq MSHR miss ticks (Tick)
system.cpu.dcache.SoftPFReq.mshrMissLatency::total 305346732168                       # number of SoftPFReq MSHR miss ticks (Tick)
system.cpu.dcache.SoftPFReq.mshrMissRate::cpu.data     0.499086                       # mshr miss rate for SoftPFReq accesses (Ratio)
system.cpu.dcache.SoftPFReq.mshrMissRate::total     0.499086                       # mshr miss rate for SoftPFReq accesses (Ratio)
system.cpu.dcache.SoftPFReq.avgMshrMissLatency::cpu.data 79750.752963                       # average SoftPFReq mshr miss latency ((Tick/Count))
system.cpu.dcache.SoftPFReq.avgMshrMissLatency::total 79750.752963                       # average SoftPFReq mshr miss latency ((Tick/Count))
system.cpu.dcache.StoreCondReq.hits::cpu.data           39                       # number of StoreCondReq hits (Count)
system.cpu.dcache.StoreCondReq.hits::total           39                       # number of StoreCondReq hits (Count)
system.cpu.dcache.StoreCondReq.accesses::cpu.data           39                       # number of StoreCondReq accesses(hits+misses) (Count)
system.cpu.dcache.StoreCondReq.accesses::total           39                       # number of StoreCondReq accesses(hits+misses) (Count)
system.cpu.dcache.WriteReq.hits::cpu.data    147005592                       # number of WriteReq hits (Count)
system.cpu.dcache.WriteReq.hits::total      147005592                       # number of WriteReq hits (Count)
system.cpu.dcache.WriteReq.misses::cpu.data     66244699                       # number of WriteReq misses (Count)
system.cpu.dcache.WriteReq.misses::total     66244699                       # number of WriteReq misses (Count)
system.cpu.dcache.WriteReq.missLatency::cpu.data 3523698269994                       # number of WriteReq miss ticks (Tick)
system.cpu.dcache.WriteReq.missLatency::total 3523698269994                       # number of WriteReq miss ticks (Tick)
system.cpu.dcache.WriteReq.accesses::cpu.data    213250291                       # number of WriteReq accesses(hits+misses) (Count)
system.cpu.dcache.WriteReq.accesses::total    213250291                       # number of WriteReq accesses(hits+misses) (Count)
system.cpu.dcache.WriteReq.missRate::cpu.data     0.310643                       # miss rate for WriteReq accesses (Ratio)
system.cpu.dcache.WriteReq.missRate::total     0.310643                       # miss rate for WriteReq accesses (Ratio)
system.cpu.dcache.WriteReq.avgMissLatency::cpu.data 53192.154590                       # average WriteReq miss latency ((Tick/Count))
system.cpu.dcache.WriteReq.avgMissLatency::total 53192.154590                       # average WriteReq miss latency ((Tick/Count))
system.cpu.dcache.WriteReq.mshrHits::cpu.data     58680719                       # number of WriteReq MSHR hits (Count)
system.cpu.dcache.WriteReq.mshrHits::total     58680719                       # number of WriteReq MSHR hits (Count)
system.cpu.dcache.WriteReq.mshrMisses::cpu.data      7563980                       # number of WriteReq MSHR misses (Count)
system.cpu.dcache.WriteReq.mshrMisses::total      7563980                       # number of WriteReq MSHR misses (Count)
system.cpu.dcache.WriteReq.mshrMissLatency::cpu.data 478274907775                       # number of WriteReq MSHR miss ticks (Tick)
system.cpu.dcache.WriteReq.mshrMissLatency::total 478274907775                       # number of WriteReq MSHR miss ticks (Tick)
system.cpu.dcache.WriteReq.mshrMissRate::cpu.data     0.035470                       # mshr miss rate for WriteReq accesses (Ratio)
system.cpu.dcache.WriteReq.mshrMissRate::total     0.035470                       # mshr miss rate for WriteReq accesses (Ratio)
system.cpu.dcache.WriteReq.avgMshrMissLatency::cpu.data 63230.588629                       # average WriteReq mshr miss latency ((Tick/Count))
system.cpu.dcache.WriteReq.avgMshrMissLatency::total 63230.588629                       # average WriteReq mshr miss latency ((Tick/Count))
system.cpu.dcache.power_state.pwrStateResidencyTicks::UNDEFINED 574944611908                       # Cumulative time (in ticks) in various power states (Tick)
system.cpu.dcache.tags.tagsInUse           495.157811                       # Average ticks per tags in use ((Tick/Count))
system.cpu.dcache.tags.totalRefs            536129283                       # Total number of references to valid blocks. (Count)
system.cpu.dcache.tags.sampledRefs           22403481                       # Sample count of references to valid blocks. (Count)
system.cpu.dcache.tags.avgRefs              23.930624                       # Average number of references to valid blocks. ((Count/Count))
system.cpu.dcache.tags.warmupTick              150500                       # The tick when the warmup percentage was hit. (Tick)
system.cpu.dcache.tags.occupancies::cpu.data   495.157811                       # Average occupied blocks per tick, per requestor ((Count/Tick))
system.cpu.dcache.tags.avgOccs::cpu.data     0.967105                       # Average percentage of cache occupancy ((Ratio/Tick))
system.cpu.dcache.tags.avgOccs::total        0.967105                       # Average percentage of cache occupancy ((Ratio/Tick))
system.cpu.dcache.tags.occupanciesTaskId::1024          512                       # Occupied blocks per task id (Count)
system.cpu.dcache.tags.ageTaskId_1024::0          144                       # Occupied blocks per task id, per block age (Count)
system.cpu.dcache.tags.ageTaskId_1024::1          362                       # Occupied blocks per task id, per block age (Count)
system.cpu.dcache.tags.ageTaskId_1024::2            6                       # Occupied blocks per task id, per block age (Count)
system.cpu.dcache.tags.ratioOccsTaskId::1024            1                       # Ratio of occupied blocks and all blocks, per task id (Ratio)
system.cpu.dcache.tags.tagAccesses         2453309385                       # Number of tag accesses (Count)
system.cpu.dcache.tags.dataAccesses        2453309385                       # Number of data accesses (Count)
system.cpu.dcache.tags.power_state.pwrStateResidencyTicks::UNDEFINED 574944611908                       # Cumulative time (in ticks) in various power states (Tick)
system.cpu.decode.idleCycles                124061414                       # Number of cycles decode is idle (Cycle)
system.cpu.decode.blockedCycles             626528689                       # Number of cycles decode is blocked (Cycle)
system.cpu.decode.runCycles                 216279050                       # Number of cycles decode is running (Cycle)
system.cpu.decode.unblockCycles              56429031                       # Number of cycles decode is unblocking (Cycle)
system.cpu.decode.squashCycles               10731944                       # Number of cycles decode is squashing (Cycle)
system.cpu.decode.branchResolved            131532795                       # Number of times decode resolved a branch (Count)
system.cpu.decode.branchMispred                801481                       # Number of times decode detected a branch misprediction (Count)
system.cpu.decode.decodedInsts             1756762424                       # Number of instructions handled by decode (Count)
system.cpu.decode.squashedInsts               2799229                       # Number of squashed instructions handled by decode (Count)
system.cpu.fetch.icacheStallCycles          173463302                       # Number of cycles fetch is stalled on an Icache miss (Cycle)
system.cpu.fetch.insts                     1649708500                       # Number of instructions fetch has processed (Count)
system.cpu.fetch.branches                   256217123                       # Number of branches that fetch encountered (Count)
system.cpu.fetch.predictedBranches          152163181                       # Number of branches that fetch has predicted taken (Count)
system.cpu.fetch.cycles                     849053574                       # Number of cycles fetch has run and was not squashing or blocked (Cycle)
system.cpu.fetch.squashCycles                23026406                       # Number of cycles fetch has spent squashing (Cycle)
system.cpu.fetch.miscStallCycles                    3                       # Number of cycles fetch has spent waiting on interrupts, or bad addresses, or out of MSHRs (Cycle)
system.cpu.fetch.pendingTrapStallCycles            12                       # Number of stall cycles due to pending traps (Cycle)
system.cpu.fetch.icacheWaitRetryStallCycles           34                       # Number of stall cycles due to full MSHR (Cycle)
system.cpu.fetch.cacheLines                 167520659                       # Number of cache lines fetched (Count)
system.cpu.fetch.icacheSquashes               3238486                       # Number of outstanding Icache misses that were squashed (Count)
system.cpu.fetch.nisnDist::samples         1034030128                       # Number of instructions fetched each cycle (Total) (Count)
system.cpu.fetch.nisnDist::mean              1.813049                       # Number of instructions fetched each cycle (Total) (Count)
system.cpu.fetch.nisnDist::stdev             2.930484                       # Number of instructions fetched each cycle (Total) (Count)
system.cpu.fetch.nisnDist::underflows               0      0.00%      0.00% # Number of instructions fetched each cycle (Total) (Count)
system.cpu.fetch.nisnDist::0                692259539     66.95%     66.95% # Number of instructions fetched each cycle (Total) (Count)
system.cpu.fetch.nisnDist::1                 22002371      2.13%     69.08% # Number of instructions fetched each cycle (Total) (Count)
system.cpu.fetch.nisnDist::2                 38460154      3.72%     72.79% # Number of instructions fetched each cycle (Total) (Count)
system.cpu.fetch.nisnDist::3                 22243640      2.15%     74.95% # Number of instructions fetched each cycle (Total) (Count)
system.cpu.fetch.nisnDist::4                 40927638      3.96%     78.90% # Number of instructions fetched each cycle (Total) (Count)
system.cpu.fetch.nisnDist::5                 36971239      3.58%     82.48% # Number of instructions fetched each cycle (Total) (Count)
system.cpu.fetch.nisnDist::6                 30595644      2.96%     85.44% # Number of instructions fetched each cycle (Total) (Count)
system.cpu.fetch.nisnDist::7                 27605656      2.67%     88.11% # Number of instructions fetched each cycle (Total) (Count)
system.cpu.fetch.nisnDist::8                122964247     11.89%    100.00% # Number of instructions fetched each cycle (Total) (Count)
system.cpu.fetch.nisnDist::overflows                0      0.00%    100.00% # Number of instructions fetched each cycle (Total) (Count)
system.cpu.fetch.nisnDist::min_value                0                       # Number of instructions fetched each cycle (Total) (Count)
system.cpu.fetch.nisnDist::max_value                8                       # Number of instructions fetched each cycle (Total) (Count)
system.cpu.fetch.nisnDist::total           1034030128                       # Number of instructions fetched each cycle (Total) (Count)
system.cpu.fetch.branchRate                  0.247775                       # Number of branch fetches per cycle (Ratio)
system.cpu.fetch.rate                        1.595350                       # Number of inst fetches per cycle ((Count/Cycle))
system.cpu.icache.demandHits::cpu.inst      167519453                       # number of demand (read+write) hits (Count)
system.cpu.icache.demandHits::total         167519453                       # number of demand (read+write) hits (Count)
system.cpu.icache.overallHits::cpu.inst     167519453                       # number of overall hits (Count)
system.cpu.icache.overallHits::total        167519453                       # number of overall hits (Count)
system.cpu.icache.demandMisses::cpu.inst         1206                       # number of demand (read+write) misses (Count)
system.cpu.icache.demandMisses::total            1206                       # number of demand (read+write) misses (Count)
system.cpu.icache.overallMisses::cpu.inst         1206                       # number of overall misses (Count)
system.cpu.icache.overallMisses::total           1206                       # number of overall misses (Count)
system.cpu.icache.demandMissLatency::cpu.inst     80997395                       # number of demand (read+write) miss ticks (Tick)
system.cpu.icache.demandMissLatency::total     80997395                       # number of demand (read+write) miss ticks (Tick)
system.cpu.icache.overallMissLatency::cpu.inst     80997395                       # number of overall miss ticks (Tick)
system.cpu.icache.overallMissLatency::total     80997395                       # number of overall miss ticks (Tick)
system.cpu.icache.demandAccesses::cpu.inst    167520659                       # number of demand (read+write) accesses (Count)
system.cpu.icache.demandAccesses::total     167520659                       # number of demand (read+write) accesses (Count)
system.cpu.icache.overallAccesses::cpu.inst    167520659                       # number of overall (read+write) accesses (Count)
system.cpu.icache.overallAccesses::total    167520659                       # number of overall (read+write) accesses (Count)
system.cpu.icache.demandMissRate::cpu.inst     0.000007                       # miss rate for demand accesses (Ratio)
system.cpu.icache.demandMissRate::total      0.000007                       # miss rate for demand accesses (Ratio)
system.cpu.icache.overallMissRate::cpu.inst     0.000007                       # miss rate for overall accesses (Ratio)
system.cpu.icache.overallMissRate::total     0.000007                       # miss rate for overall accesses (Ratio)
system.cpu.icache.demandAvgMissLatency::cpu.inst 67162.019071                       # average overall miss latency in ticks ((Tick/Count))
system.cpu.icache.demandAvgMissLatency::total 67162.019071                       # average overall miss latency in ticks ((Tick/Count))
system.cpu.icache.overallAvgMissLatency::cpu.inst 67162.019071                       # average overall miss latency ((Tick/Count))
system.cpu.icache.overallAvgMissLatency::total 67162.019071                       # average overall miss latency ((Tick/Count))
system.cpu.icache.blockedCycles::no_mshrs          433                       # number of cycles access was blocked (Cycle)
system.cpu.icache.blockedCycles::no_targets            0                       # number of cycles access was blocked (Cycle)
system.cpu.icache.blockedCauses::no_mshrs            7                       # number of times access was blocked (Count)
system.cpu.icache.blockedCauses::no_targets            0                       # number of times access was blocked (Count)
system.cpu.icache.avgBlocked::no_mshrs      61.857143                       # average number of cycles each access was blocked ((Cycle/Count))
system.cpu.icache.avgBlocked::no_targets          nan                       # average number of cycles each access was blocked ((Cycle/Count))
system.cpu.icache.demandMshrHits::cpu.inst          458                       # number of demand (read+write) MSHR hits (Count)
system.cpu.icache.demandMshrHits::total           458                       # number of demand (read+write) MSHR hits (Count)
system.cpu.icache.overallMshrHits::cpu.inst          458                       # number of overall MSHR hits (Count)
system.cpu.icache.overallMshrHits::total          458                       # number of overall MSHR hits (Count)
system.cpu.icache.demandMshrMisses::cpu.inst          748                       # number of demand (read+write) MSHR misses (Count)
system.cpu.icache.demandMshrMisses::total          748                       # number of demand (read+write) MSHR misses (Count)
system.cpu.icache.overallMshrMisses::cpu.inst          748                       # number of overall MSHR misses (Count)
system.cpu.icache.overallMshrMisses::total          748                       # number of overall MSHR misses (Count)
system.cpu.icache.demandMshrMissLatency::cpu.inst     55220007                       # number of demand (read+write) MSHR miss ticks (Tick)
system.cpu.icache.demandMshrMissLatency::total     55220007                       # number of demand (read+write) MSHR miss ticks (Tick)
system.cpu.icache.overallMshrMissLatency::cpu.inst     55220007                       # number of overall MSHR miss ticks (Tick)
system.cpu.icache.overallMshrMissLatency::total     55220007                       # number of overall MSHR miss ticks (Tick)
system.cpu.icache.demandMshrMissRate::cpu.inst     0.000004                       # mshr miss ratio for demand accesses (Ratio)
system.cpu.icache.demandMshrMissRate::total     0.000004                       # mshr miss ratio for demand accesses (Ratio)
system.cpu.icache.overallMshrMissRate::cpu.inst     0.000004                       # mshr miss ratio for overall accesses (Ratio)
system.cpu.icache.overallMshrMissRate::total     0.000004                       # mshr miss ratio for overall accesses (Ratio)
system.cpu.icache.demandAvgMshrMissLatency::cpu.inst 73823.538770                       # average overall mshr miss latency ((Tick/Count))
system.cpu.icache.demandAvgMshrMissLatency::total 73823.538770                       # average overall mshr miss latency ((Tick/Count))
system.cpu.icache.overallAvgMshrMissLatency::cpu.inst 73823.538770                       # average overall mshr miss latency ((Tick/Count))
system.cpu.icache.overallAvgMshrMissLatency::total 73823.538770                       # average overall mshr miss latency ((Tick/Count))
system.cpu.icache.replacements                    271                       # number of replacements (Count)
system.cpu.icache.ReadReq.hits::cpu.inst    167519453                       # number of ReadReq hits (Count)
system.cpu.icache.ReadReq.hits::total       167519453                       # number of ReadReq hits (Count)
system.cpu.icache.ReadReq.misses::cpu.inst         1206                       # number of ReadReq misses (Count)
system.cpu.icache.ReadReq.misses::total          1206                       # number of ReadReq misses (Count)
system.cpu.icache.ReadReq.missLatency::cpu.inst     80997395                       # number of ReadReq miss ticks (Tick)
system.cpu.icache.ReadReq.missLatency::total     80997395                       # number of ReadReq miss ticks (Tick)
system.cpu.icache.ReadReq.accesses::cpu.inst    167520659                       # number of ReadReq accesses(hits+misses) (Count)
system.cpu.icache.ReadReq.accesses::total    167520659                       # number of ReadReq accesses(hits+misses) (Count)
system.cpu.icache.ReadReq.missRate::cpu.inst     0.000007                       # miss rate for ReadReq accesses (Ratio)
system.cpu.icache.ReadReq.missRate::total     0.000007                       # miss rate for ReadReq accesses (Ratio)
system.cpu.icache.ReadReq.avgMissLatency::cpu.inst 67162.019071                       # average ReadReq miss latency ((Tick/Count))
system.cpu.icache.ReadReq.avgMissLatency::total 67162.019071                       # average ReadReq miss latency ((Tick/Count))
system.cpu.icache.ReadReq.mshrHits::cpu.inst          458                       # number of ReadReq MSHR hits (Count)
system.cpu.icache.ReadReq.mshrHits::total          458                       # number of ReadReq MSHR hits (Count)
system.cpu.icache.ReadReq.mshrMisses::cpu.inst          748                       # number of ReadReq MSHR misses (Count)
system.cpu.icache.ReadReq.mshrMisses::total          748                       # number of ReadReq MSHR misses (Count)
system.cpu.icache.ReadReq.mshrMissLatency::cpu.inst     55220007                       # number of ReadReq MSHR miss ticks (Tick)
system.cpu.icache.ReadReq.mshrMissLatency::total     55220007                       # number of ReadReq MSHR miss ticks (Tick)
system.cpu.icache.ReadReq.mshrMissRate::cpu.inst     0.000004                       # mshr miss rate for ReadReq accesses (Ratio)
system.cpu.icache.ReadReq.mshrMissRate::total     0.000004                       # mshr miss rate for ReadReq accesses (Ratio)
system.cpu.icache.ReadReq.avgMshrMissLatency::cpu.inst 73823.538770                       # average ReadReq mshr miss latency ((Tick/Count))
system.cpu.icache.ReadReq.avgMshrMissLatency::total 73823.538770                       # average ReadReq mshr miss latency ((Tick/Count))
system.cpu.icache.power_state.pwrStateResidencyTicks::UNDEFINED 574944611908                       # Cumulative time (in ticks) in various power states (Tick)
system.cpu.icache.tags.tagsInUse           391.839251                       # Average ticks per tags in use ((Tick/Count))
system.cpu.icache.tags.totalRefs            167520201                       # Total number of references to valid blocks. (Count)
system.cpu.icache.tags.sampledRefs                748                       # Sample count of references to valid blocks. (Count)
system.cpu.icache.tags.avgRefs           223957.487968                       # Average number of references to valid blocks. ((Count/Count))
system.cpu.icache.tags.warmupTick               81500                       # The tick when the warmup percentage was hit. (Tick)
system.cpu.icache.tags.occupancies::cpu.inst   391.839251                       # Average occupied blocks per tick, per requestor ((Count/Tick))
system.cpu.icache.tags.avgOccs::cpu.inst     0.765311                       # Average percentage of cache occupancy ((Ratio/Tick))
system.cpu.icache.tags.avgOccs::total        0.765311                       # Average percentage of cache occupancy ((Ratio/Tick))
system.cpu.icache.tags.occupanciesTaskId::1024          477                       # Occupied blocks per task id (Count)
system.cpu.icache.tags.ageTaskId_1024::4          477                       # Occupied blocks per task id, per block age (Count)
system.cpu.icache.tags.ratioOccsTaskId::1024     0.931641                       # Ratio of occupied blocks and all blocks, per task id (Ratio)
system.cpu.icache.tags.tagAccesses          670083384                       # Number of tag accesses (Count)
system.cpu.icache.tags.dataAccesses         670083384                       # Number of data accesses (Count)
system.cpu.icache.tags.power_state.pwrStateResidencyTicks::UNDEFINED 574944611908                       # Cumulative time (in ticks) in various power states (Tick)
system.cpu.iew.idleCycles                           0                       # Number of cycles IEW is idle (Cycle)
system.cpu.iew.squashCycles                  10731944                       # Number of cycles IEW is squashing (Cycle)
system.cpu.iew.blockCycles                   75490629                       # Number of cycles IEW is blocking (Cycle)
system.cpu.iew.unblockCycles                 40228629                       # Number of cycles IEW is unblocking (Cycle)
system.cpu.iew.dispatchedInsts             1634756854                       # Number of instructions dispatched to IQ (Count)
system.cpu.iew.dispSquashedInsts              1901089                       # Number of squashed instructions skipped by dispatch (Count)
system.cpu.iew.dispLoadInsts                504322321                       # Number of dispatched load instructions (Count)
system.cpu.iew.dispStoreInsts               277087631                       # Number of dispatched store instructions (Count)
system.cpu.iew.dispNonSpecInsts                  3540                       # Number of dispatched non-speculative instructions (Count)
system.cpu.iew.iqFullEvents                   1217870                       # Number of times the IQ has become full, causing a stall (Count)
system.cpu.iew.lsqFullEvents                 38686567                       # Number of times the LSQ has become full, causing a stall (Count)
system.cpu.iew.memOrderViolationEvents         307438                       # Number of memory order violations (Count)
system.cpu.iew.predictedTakenIncorrect        5867326                       # Number of branches that were predicted taken incorrectly (Count)
system.cpu.iew.predictedNotTakenIncorrect      6818686                       # Number of branches that were predicted not taken incorrectly (Count)
system.cpu.iew.branchMispredicts             12686012                       # Number of branch mispredicts detected at execute (Count)
system.cpu.iew.instsToCommit               1391397959                       # Cumulative count of insts sent to commit (Count)
system.cpu.iew.writebackCount              1375556482                       # Cumulative count of insts written-back (Count)
system.cpu.iew.producerInst                 793730457                       # Number of instructions producing a value (Count)
system.cpu.iew.consumerInst                1225960205                       # Number of instructions consuming a value (Count)
system.cpu.iew.wbRate                        1.330231                       # Insts written-back per cycle ((Count/Cycle))
system.cpu.iew.wbFanout                      0.647436                       # Average fanout of values written-back ((Count/Count))
system.cpu.lsq0.forwLoads                    47466475                       # Number of loads that had data forwarded from stores (Count)
system.cpu.lsq0.squashedLoads               137610976                       # Number of loads squashed (Count)
system.cpu.lsq0.ignoredResponses               138220                       # Number of memory responses ignored because the instruction is squashed (Count)
system.cpu.lsq0.memOrderViolation              307438                       # Number of memory ordering violations (Count)
system.cpu.lsq0.squashedStores               61907329                       # Number of stores squashed (Count)
system.cpu.lsq0.rescheduledLoads              7931585                       # Number of loads that were rescheduled (Count)
system.cpu.lsq0.blockedByCache                6391842                       # Number of times an access to memory failed due to the cache being blocked (Count)
system.cpu.lsq0.loadToUse::samples          359040299                       # Distribution of cycle latency between the first time a load is issued and its completion (Unspecified)
system.cpu.lsq0.loadToUse::mean              8.168926                       # Distribution of cycle latency between the first time a load is issued and its completion (Unspecified)
system.cpu.lsq0.loadToUse::stdev            34.328398                       # Distribution of cycle latency between the first time a load is issued and its completion (Unspecified)
system.cpu.lsq0.loadToUse::0-9              333458555     92.87%     92.87% # Distribution of cycle latency between the first time a load is issued and its completion (Unspecified)
system.cpu.lsq0.loadToUse::10-19              2294672      0.64%     93.51% # Distribution of cycle latency between the first time a load is issued and its completion (Unspecified)
system.cpu.lsq0.loadToUse::20-29             11159886      3.11%     96.62% # Distribution of cycle latency between the first time a load is issued and its completion (Unspecified)
system.cpu.lsq0.loadToUse::30-39               703327      0.20%     96.82% # Distribution of cycle latency between the first time a load is issued and its completion (Unspecified)
system.cpu.lsq0.loadToUse::40-49               961035      0.27%     97.09% # Distribution of cycle latency between the first time a load is issued and its completion (Unspecified)
system.cpu.lsq0.loadToUse::50-59               867706      0.24%     97.33% # Distribution of cycle latency between the first time a load is issued and its completion (Unspecified)
[...]
system.mem_ctrl.dram.perBankRdBursts::7        298685                       # Per bank write bursts (Count)
system.mem_ctrl.dram.perBankRdBursts::8        298431                       # Per bank write bursts (Count)
system.mem_ctrl.dram.perBankRdBursts::9        297288                       # Per bank write bursts (Count)
system.mem_ctrl.dram.perBankRdBursts::10       296989                       # Per bank write bursts (Count)
system.mem_ctrl.dram.perBankRdBursts::11       297295                       # Per bank write bursts (Count)
system.mem_ctrl.dram.perBankRdBursts::12       296061                       # Per bank write bursts (Count)
system.mem_ctrl.dram.perBankRdBursts::13       296990                       # Per bank write bursts (Count)
system.mem_ctrl.dram.perBankRdBursts::14       296215                       # Per bank write bursts (Count)
system.mem_ctrl.dram.perBankRdBursts::15       298125                       # Per bank write bursts (Count)
system.mem_ctrl.dram.perBankRdBursts::16       297471                       # Per bank write bursts (Count)
system.mem_ctrl.dram.perBankRdBursts::17       294919                       # Per bank write bursts (Count)
system.mem_ctrl.dram.perBankRdBursts::18       296971                       # Per bank write bursts (Count)
system.mem_ctrl.dram.perBankRdBursts::19       298937                       # Per bank write bursts (Count)
system.mem_ctrl.dram.perBankRdBursts::20       296147                       # Per bank write bursts (Count)
system.mem_ctrl.dram.perBankRdBursts::21       295970                       # Per bank write bursts (Count)
system.mem_ctrl.dram.perBankRdBursts::22       296206                       # Per bank write bursts (Count)
system.mem_ctrl.dram.perBankRdBursts::23       296307                       # Per bank write bursts (Count)
system.mem_ctrl.dram.perBankRdBursts::24       297003                       # Per bank write bursts (Count)
system.mem_ctrl.dram.perBankRdBursts::25       296126                       # Per bank write bursts (Count)
system.mem_ctrl.dram.perBankRdBursts::26       296431                       # Per bank write bursts (Count)
system.mem_ctrl.dram.perBankRdBursts::27       294097                       # Per bank write bursts (Count)
system.mem_ctrl.dram.perBankRdBursts::28       300268                       # Per bank write bursts (Count)
system.mem_ctrl.dram.perBankRdBursts::29       301661                       # Per bank write bursts (Count)
system.mem_ctrl.dram.perBankRdBursts::30       300307                       # Per bank write bursts (Count)
system.mem_ctrl.dram.perBankRdBursts::31       298731                       # Per bank write bursts (Count)
system.mem_ctrl.dram.perBankWrBursts::0        163107                       # Per bank write bursts (Count)
system.mem_ctrl.dram.perBankWrBursts::1        164679                       # Per bank write bursts (Count)
system.mem_ctrl.dram.perBankWrBursts::2        163793                       # Per bank write bursts (Count)
system.mem_ctrl.dram.perBankWrBursts::3        163820                       # Per bank write bursts (Count)
system.mem_ctrl.dram.perBankWrBursts::4        164326                       # Per bank write bursts (Count)
system.mem_ctrl.dram.perBankWrBursts::5        163888                       # Per bank write bursts (Count)
system.mem_ctrl.dram.perBankWrBursts::6        164830                       # Per bank write bursts (Count)
system.mem_ctrl.dram.perBankWrBursts::7        163849                       # Per bank write bursts (Count)
system.mem_ctrl.dram.perBankWrBursts::8        163715                       # Per bank write bursts (Count)
system.mem_ctrl.dram.perBankWrBursts::9        162777                       # Per bank write bursts (Count)
system.mem_ctrl.dram.perBankWrBursts::10       162726                       # Per bank write bursts (Count)
system.mem_ctrl.dram.perBankWrBursts::11       162470                       # Per bank write bursts (Count)
system.mem_ctrl.dram.perBankWrBursts::12       162487                       # Per bank write bursts (Count)
system.mem_ctrl.dram.perBankWrBursts::13       163167                       # Per bank write bursts (Count)
system.mem_ctrl.dram.perBankWrBursts::14       162827                       # Per bank write bursts (Count)
system.mem_ctrl.dram.perBankWrBursts::15       163375                       # Per bank write bursts (Count)
system.mem_ctrl.dram.perBankWrBursts::16       163269                       # Per bank write bursts (Count)
system.mem_ctrl.dram.perBankWrBursts::17       161795                       # Per bank write bursts (Count)
system.mem_ctrl.dram.perBankWrBursts::18       163035                       # Per bank write bursts (Count)
system.mem_ctrl.dram.perBankWrBursts::19       163255                       # Per bank write bursts (Count)
system.mem_ctrl.dram.perBankWrBursts::20       162558                       # Per bank write bursts (Count)
system.mem_ctrl.dram.perBankWrBursts::21       161084                       # Per bank write bursts (Count)
system.mem_ctrl.dram.perBankWrBursts::22       161748                       # Per bank write bursts (Count)
system.mem_ctrl.dram.perBankWrBursts::23       160804                       # Per bank write bursts (Count)
system.mem_ctrl.dram.perBankWrBursts::24       162129                       # Per bank write bursts (Count)
system.mem_ctrl.dram.perBankWrBursts::25       161046                       # Per bank write bursts (Count)
system.mem_ctrl.dram.perBankWrBursts::26       161592                       # Per bank write bursts (Count)
system.mem_ctrl.dram.perBankWrBursts::27       159751                       # Per bank write bursts (Count)
system.mem_ctrl.dram.perBankWrBursts::28       164297                       # Per bank write bursts (Count)
system.mem_ctrl.dram.perBankWrBursts::29       164311                       # Per bank write bursts (Count)
system.mem_ctrl.dram.perBankWrBursts::30       164194                       # Per bank write bursts (Count)
system.mem_ctrl.dram.perBankWrBursts::31       163127                       # Per bank write bursts (Count)
system.mem_ctrl.dram.totQLat             176131036800                       # Total ticks spent queuing (Tick)
system.mem_ctrl.dram.totBusLat            31767681176                       # Total ticks spent in databus transfers (Tick)
system.mem_ctrl.dram.totMemAccLat        342901828856                       # Total ticks spent from burst creation until serviced by the DRAM (Tick)
system.mem_ctrl.dram.avgQLat                 18473.76                       # Average queueing delay per DRAM burst ((Tick/Count))
system.mem_ctrl.dram.avgBusLat                3332.00                       # Average bus latency per DRAM burst ((Tick/Count))
system.mem_ctrl.dram.avgMemAccLat            35965.76                       # Average memory access latency per DRAM burst ((Tick/Count))
system.mem_ctrl.dram.readRowHits              8517661                       # Number of row buffer hits during reads (Count)
system.mem_ctrl.dram.writeRowHits             4468582                       # Number of row buffer hits during writes (Count)
system.mem_ctrl.dram.readRowHitRate             89.34                       # Row buffer hit rate for reads (Ratio)
system.mem_ctrl.dram.writeRowHitRate            85.71                       # Row buffer hit rate for writes (Ratio)
system.mem_ctrl.dram.bytesPerActivate::samples      1761706                       # Bytes accessed per row activation (Byte)
system.mem_ctrl.dram.bytesPerActivate::mean   535.769723                       # Bytes accessed per row activation (Byte)
system.mem_ctrl.dram.bytesPerActivate::gmean   347.158960                       # Bytes accessed per row activation (Byte)
system.mem_ctrl.dram.bytesPerActivate::stdev   379.542728                       # Bytes accessed per row activation (Byte)
system.mem_ctrl.dram.bytesPerActivate::0-127       413908     23.49%     23.49% # Bytes accessed per row activation (Byte)
system.mem_ctrl.dram.bytesPerActivate::128-255       145603      8.26%     31.76% # Bytes accessed per row activation (Byte)
system.mem_ctrl.dram.bytesPerActivate::256-383        62380      3.54%     35.30% # Bytes accessed per row activation (Byte)
system.mem_ctrl.dram.bytesPerActivate::384-511        75904      4.31%     39.61% # Bytes accessed per row activation (Byte)
system.mem_ctrl.dram.bytesPerActivate::512-639       411957     23.38%     62.99% # Bytes accessed per row activation (Byte)
system.mem_ctrl.dram.bytesPerActivate::640-767        54101      3.07%     66.06% # Bytes accessed per row activation (Byte)
system.mem_ctrl.dram.bytesPerActivate::768-895        39581      2.25%     68.31% # Bytes accessed per row activation (Byte)
system.mem_ctrl.dram.bytesPerActivate::896-1023        32190      1.83%     70.14% # Bytes accessed per row activation (Byte)
system.mem_ctrl.dram.bytesPerActivate::1024-1151       526082     29.86%    100.00% # Bytes accessed per row activation (Byte)
system.mem_ctrl.dram.bytesPerActivate::total      1761706                       # Bytes accessed per row activation (Byte)
system.mem_ctrl.dram.bytesRead              610183552                       # Total bytes read (Byte)
system.mem_ctrl.dram.bytesWritten           333685184                       # Total bytes written (Byte)
system.mem_ctrl.dram.avgRdBW              1061.291017                       # Average DRAM read bandwidth in MiBytes/s ((Byte/Second))
system.mem_ctrl.dram.avgWrBW               580.377965                       # Average DRAM write bandwidth in MiBytes/s ((Byte/Second))
system.mem_ctrl.dram.peakBW                  19207.00                       # Theoretical peak bandwidth in MiByte/s ((Byte/Second))
system.mem_ctrl.dram.busUtil                     8.55                       # Data bus utilization in percentage (Ratio)
system.mem_ctrl.dram.busUtilRead                 5.53                       # Data bus utilization in percentage for reads (Ratio)
system.mem_ctrl.dram.busUtilWrite                3.02                       # Data bus utilization in percentage for writes (Ratio)
system.mem_ctrl.dram.pageHitRate                88.05                       # Row buffer hit rate, read and write combined (Ratio)
system.mem_ctrl.dram.power_state.pwrStateResidencyTicks::UNDEFINED 574944611908                       # Cumulative time (in ticks) in various power states (Tick)
system.mem_ctrl.dram.rank0.actEnergy     2766011792.543940                       # Energy for activate commands per rank (pJ) (Joule)
system.mem_ctrl.dram.rank0.preEnergy     3677377216.496619                       # Energy for precharge commands per rank (pJ) (Joule)
system.mem_ctrl.dram.rank0.readEnergy    20091749812.105778                       # Energy for read commands per rank (pJ) (Joule)
system.mem_ctrl.dram.rank0.writeEnergy   9831609142.654789                       # Energy for write commands per rank (pJ) (Joule)
system.mem_ctrl.dram.rank0.refreshEnergy 102301825502.831482                       # Energy for refresh commands per rank (pJ) (Joule)
system.mem_ctrl.dram.rank0.actBackEnergy 259290344866.772064                       # Energy for active background per rank (pJ) (Joule)
system.mem_ctrl.dram.rank0.preBackEnergy 176095103564.091217                       # Energy for precharge background per rank (pJ) (Joule)
system.mem_ctrl.dram.rank0.actPowerDownEnergy            0                       # Energy for active power-down per rank (pJ) (Joule)
system.mem_ctrl.dram.rank0.prePowerDownEnergy            0                       # Energy for precharge power-down per rank (pJ) (Joule)
system.mem_ctrl.dram.rank0.selfRefreshEnergy            0                       # Energy for self refresh per rank (pJ) (Joule)
system.mem_ctrl.dram.rank0.totalEnergy   574054021897.659302                       # Total energy per rank (pJ) (Joule)
system.mem_ctrl.dram.rank0.averagePower    998.450999                       # Core power per rank (mW) (Watt)
system.mem_ctrl.dram.rank0.totalIdleTime            0                       # Total Idle time Per DRAM Rank (Tick)
system.mem_ctrl.dram.rank0.pwrStateTime::IDLE 267476801912                       # Time in different power states (Tick)
system.mem_ctrl.dram.rank0.pwrStateTime::REF  25845400000                       # Time in different power states (Tick)
system.mem_ctrl.dram.rank0.pwrStateTime::SREF            0                       # Time in different power states (Tick)
system.mem_ctrl.dram.rank0.pwrStateTime::PRE_PDN            0                       # Time in different power states (Tick)
system.mem_ctrl.dram.rank0.pwrStateTime::ACT 281622409996                       # Time in different power states (Tick)
system.mem_ctrl.dram.rank0.pwrStateTime::ACT_PDN            0                       # Time in different power states (Tick)
system.mem_ctrl.dram.rank1.actEnergy     2728312318.367976                       # Energy for activate commands per rank (pJ) (Joule)
system.mem_ctrl.dram.rank1.preEnergy     3627256248.906360                       # Energy for precharge commands per rank (pJ) (Joule)
system.mem_ctrl.dram.rank1.readEnergy    20011770904.471199                       # Energy for read commands per rank (pJ) (Joule)
system.mem_ctrl.dram.rank1.writeEnergy   9764553815.518707                       # Energy for write commands per rank (pJ) (Joule)
system.mem_ctrl.dram.rank1.refreshEnergy 102301825502.831482                       # Energy for refresh commands per rank (pJ) (Joule)
system.mem_ctrl.dram.rank1.actBackEnergy 253030769530.825256                       # Energy for active background per rank (pJ) (Joule)
system.mem_ctrl.dram.rank1.preBackEnergy 180904720771.365326                       # Energy for precharge background per rank (pJ) (Joule)
system.mem_ctrl.dram.rank1.actPowerDownEnergy            0                       # Energy for active power-down per rank (pJ) (Joule)
system.mem_ctrl.dram.rank1.prePowerDownEnergy            0                       # Energy for precharge power-down per rank (pJ) (Joule)
system.mem_ctrl.dram.rank1.selfRefreshEnergy            0                       # Energy for self refresh per rank (pJ) (Joule)
system.mem_ctrl.dram.rank1.totalEnergy   572369209092.443604                       # Total energy per rank (pJ) (Joule)
system.mem_ctrl.dram.rank1.averagePower    995.520607                       # Core power per rank (mW) (Watt)
system.mem_ctrl.dram.rank1.totalIdleTime            0                       # Total Idle time Per DRAM Rank (Tick)
system.mem_ctrl.dram.rank1.pwrStateTime::IDLE 274853266282                       # Time in different power states (Tick)
system.mem_ctrl.dram.rank1.pwrStateTime::REF  25845400000                       # Time in different power states (Tick)
system.mem_ctrl.dram.rank1.pwrStateTime::SREF            0                       # Time in different power states (Tick)
system.mem_ctrl.dram.rank1.pwrStateTime::PRE_PDN            0                       # Time in different power states (Tick)
system.mem_ctrl.dram.rank1.pwrStateTime::ACT 274245945626                       # Time in different power states (Tick)
system.mem_ctrl.dram.rank1.pwrStateTime::ACT_PDN            0                       # Time in different power states (Tick)
system.mem_ctrl.power_state.pwrStateResidencyTicks::UNDEFINED 574944611908                       # Cumulative time (in ticks) in various power states (Tick)
system.membus.transDist::ReadResp             4472658                       # Transaction distribution (Count)
system.membus.transDist::WritebackDirty       5213887                       # Transaction distribution (Count)
system.membus.transDist::CleanEvict           4289697                       # Transaction distribution (Count)
system.membus.transDist::ReadExReq            5064250                       # Transaction distribution (Count)
system.membus.transDist::ReadExResp           5064250                       # Transaction distribution (Count)
system.membus.transDist::ReadSharedReq        4472658                       # Transaction distribution (Count)
system.membus.pktCount_system.l2cache.mem_side_port::system.mem_ctrl.port     28577400                       # Packet count per connected requestor and responder (Count)
system.membus.pktCount::total                28577400                       # Packet count per connected requestor and responder (Count)
system.membus.pktSize_system.l2cache.mem_side_port::system.mem_ctrl.port    944050880                       # Cumulative packet size per connected requestor and responder (Byte)
system.membus.pktSize::total                944050880                       # Cumulative packet size per connected requestor and responder (Byte)
system.membus.snoops                                0                       # Total snoops (Count)
system.membus.snoopTraffic                          0                       # Total snoop traffic (Byte)
system.membus.snoopFanout::samples            9536908                       # Request fanout histogram (Count)
system.membus.snoopFanout::mean                     0                       # Request fanout histogram (Count)
system.membus.snoopFanout::stdev                    0                       # Request fanout histogram (Count)
system.membus.snoopFanout::underflows               0      0.00%      0.00% # Request fanout histogram (Count)
system.membus.snoopFanout::0                  9536908    100.00%    100.00% # Request fanout histogram (Count)
system.membus.snoopFanout::1                        0      0.00%    100.00% # Request fanout histogram (Count)
system.membus.snoopFanout::overflows                0      0.00%    100.00% # Request fanout histogram (Count)
system.membus.snoopFanout::min_value                0                       # Request fanout histogram (Count)
system.membus.snoopFanout::max_value                0                       # Request fanout histogram (Count)
system.membus.snoopFanout::total              9536908                       # Request fanout histogram (Count)
system.membus.power_state.pwrStateResidencyTicks::UNDEFINED 574944611908                       # Cumulative time (in ticks) in various power states (Tick)
system.membus.reqLayer0.occupancy         21841691196                       # Layer occupancy (ticks) (Tick)
system.membus.reqLayer0.utilization               0.0                       # Layer utilization (Ratio)
system.membus.respLayer0.occupancy        25340516920                       # Layer occupancy (ticks) (Tick)
system.membus.respLayer0.utilization              0.0                       # Layer utilization (Ratio)
system.membus.snoop_filter.totRequests       19040492                       # Total number of requests made to the snoop filter. (Count)
system.membus.snoop_filter.hitSingleRequests      9503666                       # Number of requests hitting in the snoop filter with a single holder of the requested data. (Count)
system.membus.snoop_filter.hitMultiRequests            0                       # Number of requests hitting in the snoop filter with multiple (>1) holders of the requested data. (Count)
system.membus.snoop_filter.totSnoops                0                       # Total number of snoops made to the snoop filter. (Count)
system.membus.snoop_filter.hitSingleSnoops            0                       # Number of snoops hitting in the snoop filter with a single holder of the requested data. (Count)
system.membus.snoop_filter.hitMultiSnoops            0                       # Number of snoops hitting in the snoop filter with multiple (>1) holders of the requested data. (Count)
system.workload.inst.arm                            0                       # number of arm instructions executed (Count)
system.workload.inst.quiesce                        0                       # number of quiesce instructions executed (Count)

---------- End Simulation Statistics   ----------
