
---------- Begin Simulation Statistics ----------
simSeconds                                   0.428239                       # Number of seconds simulated (Second)
simTicks                                 428238921728                       # Number of ticks simulated (Tick)
finalTick                                428238921728                       # Number of ticks from beginning of simulation (restored from checkpoints and never reset) (Tick)
simFreq                                  1000000000000                       # The number of ticks per simulated second ((Tick/Second))
hostSeconds                                   5191.30                       # Real time elapsed on the host (Second)
hostTickRate                                 82491655                       # The number of ticks simulated per host second (ticks/s) ((Tick/Second))
hostMemory                                    2296664                       # Number of bytes of host memory used (Byte)
simInsts                                   1000000000                       # Number of instructions simulated (Count)
simOps                                     1160112256                       # Number of ops (including micro ops) simulated (Count)
hostInstRate                                   192630                       # Simulator instruction rate (inst/s) ((Count/Second))
hostOpRate                                     223472                       # Simulator op (including micro ops) rate (op/s) ((Count/Second))
system.clk_domain.clock                           500                       # Clock period in ticks (Tick)
system.clk_domain.voltage_domain.voltage            1                       # Voltage in Volts (Volt)
system.cpu.numCycles                       1540427777                       # Number of cpu cycles simulated (Cycle)
system.cpu.numWorkItemsStarted                      0                       # Number of work items this cpu started (Count)
system.cpu.numWorkItemsCompleted                    0                       # Number of work items this cpu completed (Count)
system.cpu.instsAdded                      1647525186                       # Number of instructions added to the IQ (excludes non-spec) (Count)
system.cpu.nonSpecInstsAdded                     6990                       # Number of non-speculative instructions added to the IQ (Count)
system.cpu.instsIssued                     1501264320                       # Number of instructions issued (Count)
system.cpu.squashedInstsIssued                1572666                       # Number of squashed instructions issued (Count)
system.cpu.squashedInstsExamined            487419815                       # Number of squashed instructions iterated over during squash; mainly for profiling (Count)
system.cpu.squashedOperandsExamined        1260322584                       # Number of squashed operands that are examined and possibly removed from graph (Count)
system.cpu.squashedNonSpecRemoved                6451                       # Number of squashed non-spec instructions that were removed (Count)
system.cpu.numIssuedDist::samples          1540329353                       # Number of insts issued each cycle (Count)
system.cpu.numIssuedDist::mean               0.974639                       # Number of insts issued each cycle (Count)
system.cpu.numIssuedDist::stdev              1.736640                       # Number of insts issued each cycle (Count)
system.cpu.numIssuedDist::underflows                0      0.00%      0.00% # Number of insts issued each cycle (Count)
system.cpu.numIssuedDist::0                1050101261     68.17%     68.17% # Number of insts issued each cycle (Count)
system.cpu.numIssuedDist::1                 117235804      7.61%     75.78% # Number of insts issued each cycle (Count)
system.cpu.numIssuedDist::2                  99663051      6.47%     82.26% # Number of insts issued each cycle (Count)
system.cpu.numIssuedDist::3                  82255760      5.34%     87.60% # Number of insts issued each cycle (Count)
system.cpu.numIssuedDist::4                  97266056      6.31%     93.91% # Number of insts issued each cycle (Count)
system.cpu.numIssuedDist::5                  42149271      2.74%     96.65% # Number of insts issued each cycle (Count)
system.cpu.numIssuedDist::6                  31752908      2.06%     98.71% # Number of insts issued each cycle (Count)
system.cpu.numIssuedDist::7                  11634829      0.76%     99.46% # Number of insts issued each cycle (Count)
system.cpu.numIssuedDist::8                   8270413      0.54%    100.00% # Number of insts issued each cycle (Count)
system.cpu.numIssuedDist::overflows                 0      0.00%    100.00% # Number of insts issued each cycle (Count)
system.cpu.numIssuedDist::min_value                 0                       # Number of insts issued each cycle (Count)
system.cpu.numIssuedDist::max_value                 8                       # Number of insts issued each cycle (Count)
system.cpu.numIssuedDist::total            1540329353                       # Number of insts issued each cycle (Count)
system.cpu.statFuBusy::No_OpClass                   0      0.00%      0.00% # attempts to use FU when none available (Count)
system.cpu.statFuBusy::IntAlu                 2574269      4.86%      4.86% # attempts to use FU when none available (Count)
system.cpu.statFuBusy::IntMult                      0      0.00%      4.86% # attempts to use FU when none available (Count)
system.cpu.statFuBusy::IntDiv                       0      0.00%      4.86% # attempts to use FU when none available (Count)
system.cpu.statFuBusy::FloatAdd                     0      0.00%      4.86% # attempts to use FU when none available (Count)
system.cpu.statFuBusy::FloatCmp                     0      0.00%      4.86% # attempts to use FU when none available (Count)
system.cpu.statFuBusy::FloatCvt                     0      0.00%      4.86% # attempts to use FU when none available (Count)
system.cpu.statFuBusy::FloatMult                    0      0.00%      4.86% # attempts to use FU when none available (Count)
system.cpu.statFuBusy::FloatMultAcc                 0      0.00%      4.86% # attempts to use FU when none available (Count)
system.cpu.statFuBusy::FloatDiv                     0      0.00%      4.86% # attempts to use FU when none available (Count)
system.cpu.statFuBusy::FloatMisc                    0      0.00%      4.86% # attempts to use FU when none available (Count)
system.cpu.statFuBusy::FloatSqrt                    0      0.00%      4.86% # attempts to use FU when none available (Count)
system.cpu.statFuBusy::SimdAdd                      0      0.00%      4.86% # attempts to use FU when none available (Count)
system.cpu.statFuBusy::SimdAddAcc                   0      0.00%      4.86% # attempts to use FU when none available (Count)
system.cpu.statFuBusy::SimdAlu                      0      0.00%      4.86% # attempts to use FU when none available (Count)
system.cpu.statFuBusy::SimdCmp                      0      0.00%      4.86% # attempts to use FU when none available (Count)
system.cpu.statFuBusy::SimdCvt                      0      0.00%      4.86% # attempts to use FU when none available (Count)
system.cpu.statFuBusy::SimdMisc                     0      0.00%      4.86% # attempts to use FU when none available (Count)
system.cpu.statFuBusy::SimdMult                     0      0.00%      4.86% # attempts to use FU when none available (Count)
system.cpu.statFuBusy::SimdMultAcc                  0      0.00%      4.86% # attempts to use FU when none available (Count)
system.cpu.statFuBusy::SimdShift                    0      0.00%      4.86% # attempts to use FU when none available (Count)
system.cpu.statFuBusy::SimdShiftAcc                 0      0.00%      4.86% # attempts to use FU when none available (Count)
system.cpu.statFuBusy::SimdDiv                      0      0.00%      4.86% # attempts to use FU when none available (Count)
system.cpu.statFuBusy::SimdSqrt                     0      0.00%      4.86% # attempts to use FU when none available (Count)
system.cpu.statFuBusy::SimdFloatAdd                 0      0.00%      4.86% # attempts to use FU when none available (Count)
system.cpu.statFuBusy::SimdFloatAlu                 0      0.00%      4.86% # attempts to use FU when none available (Count)
system.cpu.statFuBusy::SimdFloatCmp                 0      0.00%      4.86% # attempts to use FU when none available (Count)
system.cpu.statFuBusy::SimdFloatCvt                 0      0.00%      4.86% # attempts to use FU when none available (Count)
system.cpu.statFuBusy::SimdFloatDiv                 0      0.00%      4.86% # attempts to use FU when none available (Count)
system.cpu.statFuBusy::SimdFloatMisc                0      0.00%      4.86% # attempts to use FU when none available (Count)
system.cpu.statFuBusy::SimdFloatMult                0      0.00%      4.86% # attempts to use FU when none available (Count)
system.cpu.statFuBusy::SimdFloatMultAcc             0      0.00%      4.86% # attempts to use FU when none available (Count)
system.cpu.statFuBusy::SimdFloatSqrt                0      0.00%      4.86% # attempts to use FU when none available (Count)
system.cpu.statFuBusy::SimdReduceAdd                0      0.00%      4.86% # attempts to use FU when none available (Count)
system.cpu.statFuBusy::SimdReduceAlu                0      0.00%      4.86% # attempts to use FU when none available (Count)
system.cpu.statFuBusy::SimdReduceCmp                0      0.00%      4.86% # attempts to use FU when none available (Count)
system.cpu.statFuBusy::SimdFloatReduceAdd            0      0.00%      4.86% # attempts to use FU when none available (Count)
system.cpu.statFuBusy::SimdFloatReduceCmp            0      0.00%      4.86% # attempts to use FU when none available (Count)
system.cpu.statFuBusy::SimdAes                      0      0.00%      4.86% # attempts to use FU when none available (Count)
system.cpu.statFuBusy::SimdAesMix                   0      0.00%      4.86% # attempts to use FU when none available (Count)
system.cpu.statFuBusy::SimdSha1Hash                 0      0.00%      4.86% # attempts to use FU when none available (Count)
system.cpu.statFuBusy::SimdSha1Hash2                0      0.00%      4.86% # attempts to use FU when none available (Count)
system.cpu.statFuBusy::SimdSha256Hash               0      0.00%      4.86% # attempts to use FU when none available (Count)
system.cpu.statFuBusy::SimdSha256Hash2              0      0.00%      4.86% # attempts to use FU when none available (Count)
system.cpu.statFuBusy::SimdShaSigma2                0      0.00%      4.86% # attempts to use FU when none available (Count)
system.cpu.statFuBusy::SimdShaSigma3                0      0.00%      4.86% # attempts to use FU when none available (Count)
system.cpu.statFuBusy::SimdPredAlu                  0      0.00%      4.86% # attempts to use FU when none available (Count)
system.cpu.statFuBusy::MemRead               41266097     77.93%     82.80% # attempts to use FU when none available (Count)
system.cpu.statFuBusy::MemWrite               9109175     17.20%    100.00% # attempts to use FU when none available (Count)
system.cpu.statFuBusy::FloatMemRead                 0      0.00%    100.00% # attempts to use FU when none available (Count)
system.cpu.statFuBusy::FloatMemWrite                0      0.00%    100.00% # attempts to use FU when none available (Count)
system.cpu.statFuBusy::IprAccess                    0      0.00%    100.00% # attempts to use FU when none available (Count)
system.cpu.statFuBusy::InstPrefetch                 0      0.00%    100.00% # attempts to use FU when none available (Count)
system.cpu.statIssuedInstType_0::No_OpClass            2      0.00%      0.00% # Number of instructions issued per FU type, per thread (Count)
system.cpu.statIssuedInstType_0::IntAlu     738142788     49.17%     49.17% # Number of instructions issued per FU type, per thread (Count)
system.cpu.statIssuedInstType_0::IntMult          879      0.00%     49.17% # Number of instructions issued per FU type, per thread (Count)
system.cpu.statIssuedInstType_0::IntDiv             0      0.00%     49.17% # Number of instructions issued per FU type, per thread (Count)
system.cpu.statIssuedInstType_0::FloatAdd            0      0.00%     49.17% # Number of instructions issued per FU type, per thread (Count)
system.cpu.statIssuedInstType_0::FloatCmp            0      0.00%     49.17% # Number of instructions issued per FU type, per thread (Count)
system.cpu.statIssuedInstType_0::FloatCvt            0      0.00%     49.17% # Number of instructions issued per FU type, per thread (Count)
system.cpu.statIssuedInstType_0::FloatMult            0      0.00%     49.17% # Number of instructions issued per FU type, per thread (Count)
system.cpu.statIssuedInstType_0::FloatMultAcc            0      0.00%     49.17% # Number of instructions issued per FU type, per thread (Count)
system.cpu.statIssuedInstType_0::FloatDiv            0      0.00%     49.17% # Number of instructions issued per FU type, per thread (Count)
system.cpu.statIssuedInstType_0::FloatMisc            0      0.00%     49.17% # Number of instructions issued per FU type, per thread (Count)
system.cpu.statIssuedInstType_0::FloatSqrt            0      0.00%     49.17% # Number of instructions issued per FU type, per thread (Count)
system.cpu.statIssuedInstType_0::SimdAdd            0      0.00%     49.17% # Number of instructions issued per FU type, per thread (Count)
system.cpu.statIssuedInstType_0::SimdAddAcc            0      0.00%     49.17% # Number of instructions issued per FU type, per thread (Count)
system.cpu.statIssuedInstType_0::SimdAlu            0      0.00%     49.17% # Number of instructions issued per FU type, per thread (Count)
system.cpu.statIssuedInstType_0::SimdCmp            0      0.00%     49.17% # Number of instructions issued per FU type, per thread (Count)
system.cpu.statIssuedInstType_0::SimdCvt            0      0.00%     49.17% # Number of instructions issued per FU type, per thread (Count)
system.cpu.statIssuedInstType_0::SimdMisc            0      0.00%     49.17% # Number of instructions issued per FU type, per thread (Count)
system.cpu.statIssuedInstType_0::SimdMult            0      0.00%     49.17% # Number of instructions issued per FU type, per thread (Count)
system.cpu.statIssuedInstType_0::SimdMultAcc            0      0.00%     49.17% # Number of instructions issued per FU type, per thread (Count)
system.cpu.statIssuedInstType_0::SimdShift            0      0.00%     49.17% # Number of instructions issued per FU type, per thread (Count)
system.cpu.statIssuedInstType_0::SimdShiftAcc            0      0.00%     49.17% # Number of instructions issued per FU type, per thread (Count)
system.cpu.statIssuedInstType_0::SimdDiv            0      0.00%     49.17% # Number of instructions issued per FU type, per thread (Count)
system.cpu.statIssuedInstType_0::SimdSqrt            0      0.00%     49.17% # Number of instructions issued per FU type, per thread (Count)
system.cpu.statIssuedInstType_0::SimdFloatAdd            0      0.00%     49.17% # Number of instructions issued per FU type, per thread (Count)
system.cpu.statIssuedInstType_0::SimdFloatAlu            0      0.00%     49.17% # Number of instructions issued per FU type, per thread (Count)
system.cpu.statIssuedInstType_0::SimdFloatCmp            0      0.00%     49.17% # Number of instructions issued per FU type, per thread (Count)
system.cpu.statIssuedInstType_0::SimdFloatCvt           38      0.00%     49.17% # Number of instructions issued per FU type, per thread (Count)
system.cpu.statIssuedInstType_0::SimdFloatDiv            6      0.00%     49.17% # Number of instructions issued per FU type, per thread (Count)
system.cpu.statIssuedInstType_0::SimdFloatMisc           23      0.00%     49.17% # Number of instructions issued per FU type, per thread (Count)
system.cpu.statIssuedInstType_0::SimdFloatMult           10      0.00%     49.17% # Number of instructions issued per FU type, per thread (Count)
system.cpu.statIssuedInstType_0::SimdFloatMultAcc            0      0.00%     49.17% # Number of instructions issued per FU type, per thread (Count)
system.cpu.statIssuedInstType_0::SimdFloatSqrt            0      0.00%     49.17% # Number of instructions issued per FU type, per thread (Count)
system.cpu.statIssuedInstType_0::SimdReduceAdd            0      0.00%     49.17% # Number of instructions issued per FU type, per thread (Count)
system.cpu.statIssuedInstType_0::SimdReduceAlu            0      0.00%     49.17% # Number of instructions issued per FU type, per thread (Count)
system.cpu.statIssuedInstType_0::SimdReduceCmp            0      0.00%     49.17% # Number of instructions issued per FU type, per thread (Count)
system.cpu.statIssuedInstType_0::SimdFloatReduceAdd            0      0.00%     49.17% # Number of instructions issued per FU type, per thread (Count)
system.cpu.statIssuedInstType_0::SimdFloatReduceCmp            0      0.00%     49.17% # Number of instructions issued per FU type, per thread (Count)
system.cpu.statIssuedInstType_0::SimdAes            0      0.00%     49.17% # Number of instructions issued per FU type, per thread (Count)
system.cpu.statIssuedInstType_0::SimdAesMix            0      0.00%     49.17% # Number of instructions issued per FU type, per thread (Count)
system.cpu.statIssuedInstType_0::SimdSha1Hash            0      0.00%     49.17% # Number of instructions issued per FU type, per thread (Count)
system.cpu.statIssuedInstType_0::SimdSha1Hash2            0      0.00%     49.17% # Number of instructions issued per FU type, per thread (Count)
system.cpu.statIssuedInstType_0::SimdSha256Hash            0      0.00%     49.17% # Number of instructions issued per FU type, per thread (Count)
system.cpu.statIssuedInstType_0::SimdSha256Hash2            0      0.00%     49.17% # Number of instructions issued per FU type, per thread (Count)
system.cpu.statIssuedInstType_0::SimdShaSigma2            0      0.00%     49.17% # Number of instructions issued per FU type, per thread (Count)
system.cpu.statIssuedInstType_0::SimdShaSigma3            0      0.00%     49.17% # Number of instructions issued per FU type, per thread (Count)
system.cpu.statIssuedInstType_0::SimdPredAlu            0      0.00%     49.17% # Number of instructions issued per FU type, per thread (Count)
system.cpu.statIssuedInstType_0::MemRead    526268271     35.06%     84.22% # Number of instructions issued per FU type, per thread (Count)
system.cpu.statIssuedInstType_0::MemWrite    236852303     15.78%    100.00% # Number of instructions issued per FU type, per thread (Count)
system.cpu.statIssuedInstType_0::FloatMemRead            0      0.00%    100.00% # Number of instructions issued per FU type, per thread (Count)
system.cpu.statIssuedInstType_0::FloatMemWrite            0      0.00%    100.00% # Number of instructions issued per FU type, per thread (Count)
system.cpu.statIssuedInstType_0::IprAccess            0      0.00%    100.00% # Number of instructions issued per FU type, per thread (Count)
system.cpu.statIssuedInstType_0::InstPrefetch            0      0.00%    100.00% # Number of instructions issued per FU type, per thread (Count)
system.cpu.statIssuedInstType_0::total     1501264320                       # Number of instructions issued per FU type, per thread (Count)
system.cpu.issueRate                         0.974576                       # Inst issue rate ((Count/Cycle))
system.cpu.fuBusy                            52949541                       # FU busy when requested (Count)
system.cpu.fuBusyRate                        0.035270                       # FU busy rate (busy events/executed inst) ((Count/Count))
system.cpu.intInstQueueReads               4597380194                       # Number of integer instruction queue reads (Count)
system.cpu.intInstQueueWrites              2135248754                       # Number of integer instruction queue writes (Count)
system.cpu.intInstQueueWakeupAccesses      1382134753                       # Number of integer instruction queue wakeup accesses (Count)
system.cpu.fpInstQueueReads                         0                       # Number of floating instruction queue reads (Count)
system.cpu.fpInstQueueWrites                        0                       # Number of floating instruction queue writes (Count)
system.cpu.fpInstQueueWakeupAccesses                0                       # Number of floating instruction queue wakeup accesses (Count)
system.cpu.vecInstQueueReads                        0                       # Number of vector instruction queue reads (Count)
system.cpu.vecInstQueueWrites                       0                       # Number of vector instruction queue writes (Count)
system.cpu.vecInstQueueWakeupAccesses               0                       # Number of vector instruction queue wakeup accesses (Count)
system.cpu.intAluAccesses                  1554213859                       # Number of integer alu accesses (Count)
system.cpu.fpAluAccesses                            0                       # Number of floating point alu accesses (Count)
system.cpu.vecAluAccesses                           0                       # Number of vector alu accesses (Count)
system.cpu.numInsts                        1482987088                       # Number of executed instructions (Count)
system.cpu.numLoadInsts                     517612667                       # Number of load instructions executed (Count)
system.cpu.numSquashedInsts                  18277226                       # Number of squashed instructions skipped in execute (Count)
system.cpu.numSwp                                   0                       # Number of swp insts executed (Count)
system.cpu.numNop                                 299                       # Number of nop insts executed (Count)
system.cpu.numRefs                          751499515                       # Number of memory reference insts executed (Count)
system.cpu.numBranches                      181361466                       # Number of branches executed (Count)
system.cpu.numStoreInsts                    233886848                       # Number of stores executed (Count)
system.cpu.numRate                           0.962711                       # Inst execution rate ((Count/Cycle))
system.cpu.timesIdled                             617                       # Number of times that the entire CPU went into an idle state and unscheduled itself (Count)
system.cpu.idleCycles                           98424                       # Total number of cycles that the CPU has spent unscheduled due to idling (Cycle)
system.cpu.committedInsts                  1000000000                       # Number of Instructions Simulated (Count)
system.cpu.committedOps                    1160112256                       # Number of Ops (including micro ops) Simulated (Count)
system.cpu.cpi                               1.540428                       # CPI: Cycles Per Instruction ((Cycle/Count))
system.cpu.totalCpi                          1.540428                       # CPI: Total CPI of All Threads ((Cycle/Count))
system.cpu.ipc                               0.649170                       # IPC: Instructions Per Cycle ((Count/Cycle))
system.cpu.totalIpc                          0.649170                       # IPC: Total IPC of All Threads ((Count/Cycle))
system.cpu.intRegfileReads                 1872928669                       # Number of integer regfile reads (Count)
system.cpu.intRegfileWrites                 876172425                       # Number of integer regfile writes (Count)
system.cpu.vecRegfileReads                        202                       # number of vector regfile reads (Count)
system.cpu.vecRegfileWrites                       706                       # number of vector regfile writes (Count)
system.cpu.ccRegfileReads                  5722988693                       # number of cc regfile reads (Count)
system.cpu.ccRegfileWrites                  742698029                       # number of cc regfile writes (Count)
system.cpu.miscRegfileReads                 654001573                       # number of misc regfile reads (Count)
system.cpu.miscRegfileWrites                      158                       # number of misc regfile writes (Count)
system.cpu.MemDepUnit__0.insertedLoads      507311796                       # Number of loads inserted to the mem dependence unit. (Count)
system.cpu.MemDepUnit__0.insertedStores     278110342                       # Number of stores inserted to the mem dependence unit. (Count)
system.cpu.MemDepUnit__0.conflictingLoads    156526213                       # Number of conflicting loads. (Count)
system.cpu.MemDepUnit__0.conflictingStores    110655557                       # Number of conflicting stores. (Count)
system.cpu.MemDepUnit__1.insertedLoads              0                       # Number of loads inserted to the mem dependence unit. (Count)
system.cpu.MemDepUnit__1.insertedStores             0                       # Number of stores inserted to the mem dependence unit. (Count)
system.cpu.MemDepUnit__1.conflictingLoads            0                       # Number of conflicting loads. (Count)
system.cpu.MemDepUnit__1.conflictingStores            0                       # Number of conflicting stores. (Count)
system.cpu.MemDepUnit__2.insertedLoads              0                       # Number of loads inserted to the mem dependence unit. (Count)
system.cpu.MemDepUnit__2.insertedStores             0                       # Number of stores inserted to the mem dependence unit. (Count)
system.cpu.MemDepUnit__2.conflictingLoads            0                       # Number of conflicting loads. (Count)
system.cpu.MemDepUnit__2.conflictingStores            0                       # Number of conflicting stores. (Count)
system.cpu.MemDepUnit__3.insertedLoads              0                       # Number of loads inserted to the mem dependence unit. (Count)
system.cpu.MemDepUnit__3.insertedStores             0                       # Number of stores inserted to the mem dependence unit. (Count)
system.cpu.MemDepUnit__3.conflictingLoads            0                       # Number of conflicting loads. (Count)
system.cpu.MemDepUnit__3.conflictingStores            0                       # Number of conflicting stores. (Count)
system.cpu.branchPred.lookups               260665469                       # Number of BP lookups (Count)
system.cpu.branchPred.condPredicted         215745591                       # Number of conditional branches predicted (Count)
system.cpu.branchPred.condIncorrect          11204779                       # Number of conditional branches incorrect (Count)
system.cpu.branchPred.BTBLookups            145634960                       # Number of BTB lookups (Count)
system.cpu.branchPred.BTBHits               145524580                       # Number of BTB hits (Count)
system.cpu.branchPred.BTBHitRatio            0.999242                       # BTB Hit Ratio (Ratio)
system.cpu.branchPred.RASUsed                 9558055                       # Number of times the RAS was used to get a target. (Count)
system.cpu.branchPred.RASIncorrect                  8                       # Number of incorrect RAS predictions. (Count)
system.cpu.branchPred.indirectLookups            2432                       # Number of indirect predictor lookups. (Count)
system.cpu.branchPred.indirectHits               2076                       # Number of indirect target hits. (Count)
system.cpu.branchPred.indirectMisses              356                       # Number of indirect misses. (Count)
system.cpu.branchPred.indirectMispredicted           98                       # Number of mispredicted indirect branches. (Count)
system.cpu.commit.commitSquashedInsts       487008415                       # The number of squashed insts skipped by commit (Count)
system.cpu.commit.commitNonSpecStalls             539                       # The number of times commit has been forced to stall to communicate backwards (Count)
system.cpu.commit.branchMispredicts          10398855                       # The number of times a branch was mispredicted (Count)
system.cpu.commit.numCommittedDist::samples   1473022759                       # Number of insts commited each cycle (Count)
system.cpu.commit.numCommittedDist::mean     0.787573                       # Number of insts commited each cycle (Count)
system.cpu.commit.numCommittedDist::stdev     1.918431                       # Number of insts commited each cycle (Count)
system.cpu.commit.numCommittedDist::underflows            0      0.00%      0.00% # Number of insts commited each cycle (Count)
system.cpu.commit.numCommittedDist::0      1136592930     77.16%     77.16% # Number of insts commited each cycle (Count)
system.cpu.commit.numCommittedDist::1       121593196      8.25%     85.42% # Number of insts commited each cycle (Count)
system.cpu.commit.numCommittedDist::2        50263270      3.41%     88.83% # Number of insts commited each cycle (Count)
system.cpu.commit.numCommittedDist::3        33225202      2.26%     91.08% # Number of insts commited each cycle (Count)
system.cpu.commit.numCommittedDist::4        30833356      2.09%     93.18% # Number of insts commited each cycle (Count)
system.cpu.commit.numCommittedDist::5        16077014      1.09%     94.27% # Number of insts commited each cycle (Count)
system.cpu.commit.numCommittedDist::6        13779318      0.94%     95.20% # Number of insts commited each cycle (Count)
system.cpu.commit.numCommittedDist::7        13345079      0.91%     96.11% # Number of insts commited each cycle (Count)
system.cpu.commit.numCommittedDist::8        57313394      3.89%    100.00% # Number of insts commited each cycle (Count)
system.cpu.commit.numCommittedDist::overflows            0      0.00%    100.00% # Number of insts commited each cycle (Count)
system.cpu.commit.numCommittedDist::min_value            0                       # Number of insts commited each cycle (Count)
system.cpu.commit.numCommittedDist::max_value            8                       # Number of insts commited each cycle (Count)
system.cpu.commit.numCommittedDist::total   1473022759                       # Number of insts commited each cycle (Count)
system.cpu.commit.instsCommitted           1000000193                       # Number of instructions committed (Count)
system.cpu.commit.opsCommitted             1160112449                       # Number of ops (including micro ops) committed (Count)
system.cpu.commit.memRefs                   581891603                       # Number of memory references committed (Count)
system.cpu.commit.loads                     366711315                       # Number of loads committed (Count)
system.cpu.commit.amos                              0                       # Number of atomic instructions committed (Count)
system.cpu.commit.membars                          79                       # Number of memory barriers committed (Count)
system.cpu.commit.branches                  142882388                       # Number of branches committed (Count)
system.cpu.commit.vectorInstructions                0                       # Number of committed Vector instructions. (Count)
system.cpu.commit.floating                          0                       # Number of committed floating point instructions. (Count)
system.cpu.commit.integer                  1016066420                       # Number of committed integer instructions. (Count)
system.cpu.commit.functionCalls               4825530                       # Number of function calls committed. (Count)
system.cpu.commit.committedInstType_0::No_OpClass            0      0.00%      0.00% # Class of committed instruction (Count)
system.cpu.commit.committedInstType_0::IntAlu    578220034     49.84%     49.84% # Class of committed instruction (Count)
system.cpu.commit.committedInstType_0::IntMult          809      0.00%     49.84% # Class of committed instruction (Count)
system.cpu.commit.committedInstType_0::IntDiv            0      0.00%     49.84% # Class of committed instruction (Count)
system.cpu.commit.committedInstType_0::FloatAdd            0      0.00%     49.84% # Class of committed instruction (Count)
system.cpu.commit.committedInstType_0::FloatCmp            0      0.00%     49.84% # Class of committed instruction (Count)
system.cpu.commit.committedInstType_0::FloatCvt            0      0.00%     49.84% # Class of committed instruction (Count)
system.cpu.commit.committedInstType_0::FloatMult            0      0.00%     49.84% # Class of committed instruction (Count)
system.cpu.commit.committedInstType_0::FloatMultAcc            0      0.00%     49.84% # Class of committed instruction (Count)
system.cpu.commit.committedInstType_0::FloatDiv            0      0.00%     49.84% # Class of committed instruction (Count)
system.cpu.commit.committedInstType_0::FloatMisc            0      0.00%     49.84% # Class of committed instruction (Count)
system.cpu.commit.committedInstType_0::FloatSqrt            0      0.00%     49.84% # Class of committed instruction (Count)
system.cpu.commit.committedInstType_0::SimdAdd            0      0.00%     49.84% # Class of committed instruction (Count)
system.cpu.commit.committedInstType_0::SimdAddAcc            0      0.00%     49.84% # Class of committed instruction (Count)
system.cpu.commit.committedInstType_0::SimdAlu            0      0.00%     49.84% # Class of committed instruction (Count)
system.cpu.commit.committedInstType_0::SimdCmp            0      0.00%     49.84% # Class of committed instruction (Count)
system.cpu.commit.committedInstType_0::SimdCvt            0      0.00%     49.84% # Class of committed instruction (Count)
system.cpu.commit.committedInstType_0::SimdMisc            0      0.00%     49.84% # Class of committed instruction (Count)
system.cpu.commit.committedInstType_0::SimdMult            0      0.00%     49.84% # Class of committed instruction (Count)
system.cpu.commit.committedInstType_0::SimdMultAcc            0      0.00%     49.84% # Class of committed instruction (Count)
system.cpu.commit.committedInstType_0::SimdShift            0      0.00%     49.84% # Class of committed instruction (Count)
system.cpu.commit.committedInstType_0::SimdShiftAcc            0      0.00%     49.84% # Class of committed instruction (Count)
system.cpu.commit.committedInstType_0::SimdDiv            0      0.00%     49.84% # Class of committed instruction (Count)
system.cpu.commit.committedInstType_0::SimdSqrt            0      0.00%     49.84% # Class of committed instruction (Count)
system.cpu.commit.committedInstType_0::SimdFloatAdd            0      0.00%     49.84% # Class of committed instruction (Count)
system.cpu.commit.committedInstType_0::SimdFloatAlu            0      0.00%     49.84% # Class of committed instruction (Count)
system.cpu.commit.committedInstType_0::SimdFloatCmp            0      0.00%     49.84% # Class of committed instruction (Count)
system.cpu.commit.committedInstType_0::SimdFloatCvt            0      0.00%     49.84% # Class of committed instruction (Count)
system.cpu.commit.committedInstType_0::SimdFloatDiv            0      0.00%     49.84% # Class of committed instruction (Count)
system.cpu.commit.committedInstType_0::SimdFloatMisc            3      0.00%     49.84% # Class of committed instruction (Count)
system.cpu.commit.committedInstType_0::SimdFloatMult            0      0.00%     49.84% # Class of committed instruction (Count)
system.cpu.commit.committedInstType_0::SimdFloatMultAcc            0      0.00%     49.84% # Class of committed instruction (Count)
system.cpu.commit.committedInstType_0::SimdFloatSqrt            0      0.00%     49.84% # Class of committed instruction (Count)
system.cpu.commit.committedInstType_0::SimdReduceAdd            0      0.00%     49.84% # Class of committed instruction (Count)
system.cpu.commit.committedInstType_0::SimdReduceAlu            0      0.00%     49.84% # Class of committed instruction (Count)
system.cpu.commit.committedInstType_0::SimdReduceCmp            0      0.00%     49.84% # Class of committed instruction (Count)
system.cpu.commit.committedInstType_0::SimdFloatReduceAdd            0      0.00%     49.84% # Class of committed instruction (Count)
system.cpu.commit.committedInstType_0::SimdFloatReduceCmp            0      0.00%     49.84% # Class of committed instruction (Count)
system.cpu.commit.committedInstType_0::SimdAes            0      0.00%     49.84% # Class of committed instruction (Count)
system.cpu.commit.committedInstType_0::SimdAesMix            0      0.00%     49.84% # Class of committed instruction (Count)
system.cpu.commit.committedInstType_0::SimdSha1Hash            0      0.00%     49.84% # Class of committed instruction (Count)
system.cpu.commit.committedInstType_0::SimdSha1Hash2            0      0.00%     49.84% # Class of committed instruction (Count)
system.cpu.commit.committedInstType_0::SimdSha256Hash            0      0.00%     49.84% # Class of committed instruction (Count)
system.cpu.commit.committedInstType_0::SimdSha256Hash2            0      0.00%     49.84% # Class of committed instruction (Count)
system.cpu.commit.committedInstType_0::SimdShaSigma2            0      0.00%     49.84% # Class of committed instruction (Count)
system.cpu.commit.committedInstType_0::SimdShaSigma3            0      0.00%     49.84% # Class of committed instruction (Count)
system.cpu.commit.committedInstType_0::SimdPredAlu            0      0.00%     49.84% # Class of committed instruction (Count)
system.cpu.commit.committedInstType_0::MemRead    366711315     31.61%     81.45% # Class of committed instruction (Count)
system.cpu.commit.committedInstType_0::MemWrite    215180288     18.55%    100.00% # Class of committed instruction (Count)
system.cpu.commit.committedInstType_0::FloatMemRead            0      0.00%    100.00% # Class of committed instruction (Count)
system.cpu.commit.committedInstType_0::FloatMemWrite            0      0.00%    100.00% # Class of committed instruction (Count)
system.cpu.commit.committedInstType_0::IprAccess            0      0.00%    100.00% # Class of committed instruction (Count)
system.cpu.commit.committedInstType_0::InstPrefetch            0      0.00%    100.00% # Class of committed instruction (Count)
system.cpu.commit.committedInstType_0::total   1160112449                       # Class of committed instruction (Count)
system.cpu.commit.commitEligibleSamples      57313394                       # number cycles where commit BW limit reached (Cycle)
system.cpu.dcache.demandHits::cpu.data      512672914                       # number of demand (read+write) hits (Count)
system.cpu.dcache.demandHits::total         512672914                       # number of demand (read+write) hits (Count)
system.cpu.dcache.overallHits::cpu.data     512688072                       # number of overall hits (Count)
system.cpu.dcache.overallHits::total        512688072                       # number of overall hits (Count)
system.cpu.dcache.demandMisses::cpu.data     89047407                       # number of demand (read+write) misses (Count)
system.cpu.dcache.demandMisses::total        89047407                       # number of demand (read+write) misses (Count)
system.cpu.dcache.overallMisses::cpu.data     96703865                       # number of overall misses (Count)
system.cpu.dcache.overallMisses::total       96703865                       # number of overall misses (Count)
system.cpu.dcache.demandMissLatency::cpu.data 3890046657793                       # number of demand (read+write) miss ticks (Tick)
system.cpu.dcache.demandMissLatency::total 3890046657793                       # number of demand (read+write) miss ticks (Tick)
system.cpu.dcache.overallMissLatency::cpu.data 3890046657793                       # number of overall miss ticks (Tick)
system.cpu.dcache.overallMissLatency::total 3890046657793                       # number of overall miss ticks (Tick)
system.cpu.dcache.demandAccesses::cpu.data    601720321                       # number of demand (read+write) accesses (Count)
system.cpu.dcache.demandAccesses::total     601720321                       # number of demand (read+write) accesses (Count)
system.cpu.dcache.overallAccesses::cpu.data    609391937                       # number of overall (read+write) accesses (Count)
system.cpu.dcache.overallAccesses::total    609391937                       # number of overall (read+write) accesses (Count)
system.cpu.dcache.demandMissRate::cpu.data     0.147988                       # miss rate for demand accesses (Ratio)
system.cpu.dcache.demandMissRate::total      0.147988                       # miss rate for demand accesses (Ratio)
system.cpu.dcache.overallMissRate::cpu.data     0.158689                       # miss rate for overall accesses (Ratio)
system.cpu.dcache.overallMissRate::total     0.158689                       # miss rate for overall accesses (Ratio)
system.cpu.dcache.demandAvgMissLatency::cpu.data 43685.119970                       # average overall miss latency in ticks ((Tick/Count))
system.cpu.dcache.demandAvgMissLatency::total 43685.119970                       # average overall miss latency in ticks ((Tick/Count))
system.cpu.dcache.overallAvgMissLatency::cpu.data 40226.382449                       # average overall miss latency ((Tick/Count))
system.cpu.dcache.overallAvgMissLatency::total 40226.382449                       # average overall miss latency ((Tick/Count))
system.cpu.dcache.blockedCycles::no_mshrs    655876124                       # number of cycles access was blocked (Cycle)
system.cpu.dcache.blockedCycles::no_targets       148203                       # number of cycles access was blocked (Cycle)
system.cpu.dcache.blockedCauses::no_mshrs     10465872                       # number of times access was blocked (Count)
system.cpu.dcache.blockedCauses::no_targets         1424                       # number of times access was blocked (Count)
system.cpu.dcache.avgBlocked::no_mshrs      62.668082                       # average number of cycles each access was blocked ((Cycle/Count))
system.cpu.dcache.avgBlocked::no_targets   104.075140                       # average number of cycles each access was blocked ((Cycle/Count))
system.cpu.dcache.writebacks::writebacks     10694921                       # number of writebacks (Count)
system.cpu.dcache.writebacks::total          10694921                       # number of writebacks (Count)
system.cpu.dcache.demandMshrHits::cpu.data     70479637                       # number of demand (read+write) MSHR hits (Count)
system.cpu.dcache.demandMshrHits::total      70479637                       # number of demand (read+write) MSHR hits (Count)
system.cpu.dcache.overallMshrHits::cpu.data     70479637                       # number of overall MSHR hits (Count)
system.cpu.dcache.overallMshrHits::total     70479637                       # number of overall MSHR hits (Count)
system.cpu.dcache.demandMshrMisses::cpu.data     18567770                       # number of demand (read+write) MSHR misses (Count)
system.cpu.dcache.demandMshrMisses::total     18567770                       # number of demand (read+write) MSHR misses (Count)
system.cpu.dcache.overallMshrMisses::cpu.data     22396576                       # number of overall MSHR misses (Count)
system.cpu.dcache.overallMshrMisses::total     22396576                       # number of overall MSHR misses (Count)
system.cpu.dcache.demandMshrMissLatency::cpu.data 656561959173                       # number of demand (read+write) MSHR miss ticks (Tick)
system.cpu.dcache.demandMshrMissLatency::total 656561959173                       # number of demand (read+write) MSHR miss ticks (Tick)
system.cpu.dcache.overallMshrMissLatency::cpu.data 963520400215                       # number of overall MSHR miss ticks (Tick)
system.cpu.dcache.overallMshrMissLatency::total 963520400215                       # number of overall MSHR miss ticks (Tick)
system.cpu.dcache.demandMshrMissRate::cpu.data     0.030858                       # mshr miss ratio for demand accesses (Ratio)
system.cpu.dcache.demandMshrMissRate::total     0.030858                       # mshr miss ratio for demand accesses (Ratio)
system.cpu.dcache.overallMshrMissRate::cpu.data     0.036752                       # mshr miss ratio for overall accesses (Ratio)
system.cpu.dcache.overallMshrMissRate::total     0.036752                       # mshr miss ratio for overall accesses (Ratio)
system.cpu.dcache.demandAvgMshrMissLatency::cpu.data 35360.302243                       # average overall mshr miss latency ((Tick/Count))
system.cpu.dcache.demandAvgMshrMissLatency::total 35360.302243                       # average overall mshr miss latency ((Tick/Count))
system.cpu.dcache.overallAvgMshrMissLatency::cpu.data 43020.879630                       # average overall mshr miss latency ((Tick/Count))
system.cpu.dcache.overallAvgMshrMissLatency::total 43020.879630                       # average overall mshr miss latency ((Tick/Count))
system.cpu.dcache.replacements               22396066                       # number of replacements (Count)
system.cpu.dcache.LoadLockedReq.hits::cpu.data           37                       # number of LoadLockedReq hits (Count)
system.cpu.dcache.LoadLockedReq.hits::total           37                       # number of LoadLockedReq hits (Count)
system.cpu.dcache.LoadLockedReq.misses::cpu.data            2                       # number of LoadLockedReq misses (Count)
system.cpu.dcache.LoadLockedReq.misses::total            2                       # number of LoadLockedReq misses (Count)
system.cpu.dcache.LoadLockedReq.missLatency::cpu.data       480662                       # number of LoadLockedReq miss ticks (Tick)
system.cpu.dcache.LoadLockedReq.missLatency::total       480662                       # number of LoadLockedReq miss ticks (Tick)
system.cpu.dcache.LoadLockedReq.accesses::cpu.data           39                       # number of LoadLockedReq accesses(hits+misses) (Count)
system.cpu.dcache.LoadLockedReq.accesses::total           39                       # number of LoadLockedReq accesses(hits+misses) (Count)
system.cpu.dcache.LoadLockedReq.missRate::cpu.data     0.051282                       # miss rate for LoadLockedReq accesses (Ratio)
system.cpu.dcache.LoadLockedReq.missRate::total     0.051282                       # miss rate for LoadLockedReq accesses (Ratio)
system.cpu.dcache.LoadLockedReq.avgMissLatency::cpu.data       240331                       # average LoadLockedReq miss latency ((Tick/Count))
system.cpu.dcache.LoadLockedReq.avgMissLatency::total       240331                       # average LoadLockedReq miss latency ((Tick/Count))
system.cpu.dcache.LoadLockedReq.mshrMisses::cpu.data            2                       # number of LoadLockedReq MSHR misses (Count)
system.cpu.dcache.LoadLockedReq.mshrMisses::total            2                       # number of LoadLockedReq MSHR misses (Count)
system.cpu.dcache.LoadLockedReq.mshrMissLatency::cpu.data       479124                       # number of LoadLockedReq MSHR miss ticks (Tick)
system.cpu.dcache.LoadLockedReq.mshrMissLatency::total       479124                       # number of LoadLockedReq MSHR miss ticks (Tick)
system.cpu.dcache.LoadLockedReq.mshrMissRate::cpu.data     0.051282                       # mshr miss rate for LoadLockedReq accesses (Ratio)
system.cpu.dcache.LoadLockedReq.mshrMissRate::total     0.051282                       # mshr miss rate for LoadLockedReq accesses (Ratio)
system.cpu.dcache.LoadLockedReq.avgMshrMissLatency::cpu.data       239562                       # average LoadLockedReq mshr miss latency ((Tick/Count))
system.cpu.dcache.LoadLockedReq.avgMshrMissLatency::total       239562                       # average LoadLockedReq mshr miss latency ((Tick/Count))
system.cpu.dcache.ReadReq.hits::cpu.data    365867126                       # number of ReadReq hits (Count)
system.cpu.dcache.ReadReq.hits::total       365867126                       # number of ReadReq hits (Count)
system.cpu.dcache.ReadReq.misses::cpu.data     22602904                       # number of ReadReq misses (Count)
system.cpu.dcache.ReadReq.misses::total      22602904                       # number of ReadReq misses (Count)
system.cpu.dcache.ReadReq.missLatency::cpu.data 441172819214                       # number of ReadReq miss ticks (Tick)
system.cpu.dcache.ReadReq.missLatency::total 441172819214                       # number of ReadReq miss ticks (Tick)
system.cpu.dcache.ReadReq.accesses::cpu.data    388470030                       # number of ReadReq accesses(hits+misses) (Count)
system.cpu.dcache.ReadReq.accesses::total    388470030                       # number of ReadReq accesses(hits+misses) (Count)
system.cpu.dcache.ReadReq.missRate::cpu.data     0.058184                       # miss rate for ReadReq accesses (Ratio)
system.cpu.dcache.ReadReq.missRate::total     0.058184                       # miss rate for ReadReq accesses (Ratio)
system.cpu.dcache.ReadReq.avgMissLatency::cpu.data 19518.413174                       # average ReadReq miss latency ((Tick/Count))
system.cpu.dcache.ReadReq.avgMissLatency::total 19518.413174                       # average ReadReq miss latency ((Tick/Count))
system.cpu.dcache.ReadReq.mshrHits::cpu.data     11595168                       # number of ReadReq MSHR hits (Count)
system.cpu.dcache.ReadReq.mshrHits::total     11595168                       # number of ReadReq MSHR hits (Count)
system.cpu.dcache.ReadReq.mshrMisses::cpu.data     11007736                       # number of ReadReq MSHR misses (Count)
system.cpu.dcache.ReadReq.mshrMisses::total     11007736                       # number of ReadReq MSHR misses (Count)
system.cpu.dcache.ReadReq.mshrMissLatency::cpu.data 181226564788                       # number of ReadReq MSHR miss ticks (Tick)
system.cpu.dcache.ReadReq.mshrMissLatency::total 181226564788                       # number of ReadReq MSHR miss ticks (Tick)
system.cpu.dcache.ReadReq.mshrMissRate::cpu.data     0.028336                       # mshr miss rate for ReadReq accesses (Ratio)
system.cpu.dcache.ReadReq.mshrMissRate::total     0.028336                       # mshr miss rate for ReadReq accesses (Ratio)
system.cpu.dcache.ReadReq.avgMshrMissLatency::cpu.data 16463.563878                       # average ReadReq mshr miss latency ((Tick/Count))
system.cpu.dcache.ReadReq.avgMshrMissLatency::total 16463.563878                       # average ReadReq mshr miss latency ((Tick/Count))
system.cpu.dcache.SoftPFReq.hits::cpu.data        15158                       # number of SoftPFReq hits (Count)
system.cpu.dcache.SoftPFReq.hits::total         15158                       # number of SoftPFReq hits (Count)
system.cpu.dcache.SoftPFReq.misses::cpu.data      7656458                       # number of SoftPFReq misses (Count)
system.cpu.dcache.SoftPFReq.misses::total      7656458                       # number of SoftPFReq misses (Count)
system.cpu.dcache.SoftPFReq.accesses::cpu.data      7671616                       # number of SoftPFReq accesses(hits+misses) (Count)
system.cpu.dcache.SoftPFReq.accesses::total      7671616                       # number of SoftPFReq accesses(hits+misses) (Count)
system.cpu.dcache.SoftPFReq.missRate::cpu.data     0.998024                       # miss rate for SoftPFReq accesses (Ratio)
system.cpu.dcache.SoftPFReq.missRate::total     0.998024                       # miss rate for SoftPFReq accesses (Ratio)
system.cpu.dcache.SoftPFReq.mshrMisses::cpu.data      3828806                       # number of SoftPFReq MSHR misses (Count)
system.cpu.dcache.SoftPFReq.mshrMisses::total      3828806                       # number of SoftPFReq MSHR misses (Count)
system.cpu.dcache.SoftPFReq.mshrMissLatency::cpu.data 306958441042                       # number of SoftPFReq MSHR miss ticks (Tick)
system.cpu.dcache.SoftPFReq.mshrMissLatency::total 306958441042                       # number of SoftPFReq MSHR miss ticks (Tick)
system.cpu.dcache.SoftPFReq.mshrMissRate::cpu.data     0.499087                       # mshr miss rate for SoftPFReq accesses (Ratio)
system.cpu.dcache.SoftPFReq.mshrMissRate::total     0.499087                       # mshr miss rate for SoftPFReq accesses (Ratio)
system.cpu.dcache.SoftPFReq.avgMshrMissLatency::cpu.data 80170.800255                       # average SoftPFReq mshr miss latency ((Tick/Count))
system.cpu.dcache.SoftPFReq.avgMshrMissLatency::total 80170.800255                       # average SoftPFReq mshr miss latency ((Tick/Count))
system.cpu.dcache.StoreCondReq.hits::cpu.data           39                       # number of StoreCondReq hits (Count)
system.cpu.dcache.StoreCondReq.hits::total           39                       # number of StoreCondReq hits (Count)
system.cpu.dcache.StoreCondReq.accesses::cpu.data           39                       # number of StoreCondReq accesses(hits+misses) (Count)
system.cpu.dcache.StoreCondReq.accesses::total           39                       # number of StoreCondReq accesses(hits+misses) (Count)
system.cpu.dcache.WriteReq.hits::cpu.data    146805788                       # number of WriteReq hits (Count)
system.cpu.dcache.WriteReq.hits::total      146805788                       # number of WriteReq hits (Count)
system.cpu.dcache.WriteReq.misses::cpu.data     66444503                       # number of WriteReq misses (Count)
system.cpu.dcache.WriteReq.misses::total     66444503                       # number of WriteReq misses (Count)
system.cpu.dcache.WriteReq.missLatency::cpu.data 3448873838579                       # number of WriteReq miss ticks (Tick)
system.cpu.dcache.WriteReq.missLatency::total 3448873838579                       # number of WriteReq miss ticks (Tick)
system.cpu.dcache.WriteReq.accesses::cpu.data    213250291                       # number of WriteReq accesses(hits+misses) (Count)
system.cpu.dcache.WriteReq.accesses::total    213250291                       # number of WriteReq accesses(hits+misses) (Count)
system.cpu.dcache.WriteReq.missRate::cpu.data     0.311580                       # miss rate for WriteReq accesses (Ratio)
system.cpu.dcache.WriteReq.missRate::total     0.311580                       # miss rate for WriteReq accesses (Ratio)
system.cpu.dcache.WriteReq.avgMissLatency::cpu.data 51906.082262                       # average WriteReq miss latency ((Tick/Count))
system.cpu.dcache.WriteReq.avgMissLatency::total 51906.082262                       # average WriteReq miss latency ((Tick/Count))
system.cpu.dcache.WriteReq.mshrHits::cpu.data     58884469                       # number of WriteReq MSHR hits (Count)
system.cpu.dcache.WriteReq.mshrHits::total     58884469                       # number of WriteReq MSHR hits (Count)
system.cpu.dcache.WriteReq.mshrMisses::cpu.data      7560034                       # number of WriteReq MSHR misses (Count)
system.cpu.dcache.WriteReq.mshrMisses::total      7560034                       # number of WriteReq MSHR misses (Count)
system.cpu.dcache.WriteReq.mshrMissLatency::cpu.data 475335394385                       # number of WriteReq MSHR miss ticks (Tick)
system.cpu.dcache.WriteReq.mshrMissLatency::total 475335394385                       # number of WriteReq MSHR miss ticks (Tick)
system.cpu.dcache.WriteReq.mshrMissRate::cpu.data     0.035451                       # mshr miss rate for WriteReq accesses (Ratio)
system.cpu.dcache.WriteReq.mshrMissRate::total     0.035451                       # mshr miss rate for WriteReq accesses (Ratio)
system.cpu.dcache.WriteReq.avgMshrMissLatency::cpu.data 62874.769397                       # average WriteReq mshr miss latency ((Tick/Count))
system.cpu.dcache.WriteReq.avgMshrMissLatency::total 62874.769397                       # average WriteReq mshr miss latency ((Tick/Count))
system.cpu.dcache.power_state.pwrStateResidencyTicks::UNDEFINED 428238921728                       # Cumulative time (in ticks) in various power states (Tick)
system.cpu.dcache.tags.tagsInUse           491.373090                       # Average ticks per tags in use ((Tick/Count))
system.cpu.dcache.tags.totalRefs            535084726                       # Total number of references to valid blocks. (Count)
system.cpu.dcache.tags.sampledRefs           22396578                       # Sample count of references to valid blocks. (Count)
system.cpu.dcache.tags.avgRefs              23.891361                       # Average number of references to valid blocks. ((Count/Count))
system.cpu.dcache.tags.warmupTick              148500                       # The tick when the warmup percentage was hit. (Tick)
system.cpu.dcache.tags.occupancies::cpu.data   491.373090                       # Average occupied blocks per tick, per requestor ((Count/Tick))
system.cpu.dcache.tags.avgOccs::cpu.data     0.959713                       # Average percentage of cache occupancy ((Ratio/Tick))
system.cpu.dcache.tags.avgOccs::total        0.959713                       # Average percentage of cache occupancy ((Ratio/Tick))
system.cpu.dcache.tags.occupanciesTaskId::1024          512                       # Occupied blocks per task id (Count)
system.cpu.dcache.tags.ageTaskId_1024::0          357                       # Occupied blocks per task id, per block age (Count)
system.cpu.dcache.tags.ageTaskId_1024::1          154                       # Occupied blocks per task id, per block age (Count)
system.cpu.dcache.tags.ageTaskId_1024::2            1                       # Occupied blocks per task id, per block age (Count)
system.cpu.dcache.tags.ratioOccsTaskId::1024            1                       # Ratio of occupied blocks and all blocks, per task id (Ratio)
system.cpu.dcache.tags.tagAccesses         2459964638                       # Number of tag accesses (Count)
system.cpu.dcache.tags.dataAccesses        2459964638                       # Number of data accesses (Count)
system.cpu.dcache.tags.power_state.pwrStateResidencyTicks::UNDEFINED 428238921728                       # Cumulative time (in ticks) in various power states (Tick)
system.cpu.decode.idleCycles                121667236                       # Number of cycles decode is idle (Cycle)
system.cpu.decode.blockedCycles            1135723548                       # Number of cycles decode is blocked (Cycle)
system.cpu.decode.runCycles                 213093790                       # Number of cycles decode is running (Cycle)
system.cpu.decode.unblockCycles              59010525                       # Number of cycles decode is unblocking (Cycle)
system.cpu.decode.squashCycles               10834254                       # Number of cycles decode is squashing (Cycle)
system.cpu.decode.branchResolved            133330689                       # Number of times decode resolved a branch (Count)
system.cpu.decode.branchMispred                826762                       # Number of times decode detected a branch misprediction (Count)
system.cpu.decode.decodedInsts             1770848090                       # Number of instructions handled by decode (Count)
system.cpu.decode.squashedInsts               2900831                       # Number of squashed instructions handled by decode (Count)
system.cpu.fetch.icacheStallCycles          176486328                       # Number of cycles fetch is stalled on an Icache miss (Cycle)
system.cpu.fetch.insts                     1671088131                       # Number of instructions fetch has processed (Count)
system.cpu.fetch.branches                   260665469                       # Number of branches that fetch encountered (Count)
system.cpu.fetch.predictedBranches          155084711                       # Number of branches that fetch has predicted taken (Count)
system.cpu.fetch.cycles                    1352202784                       # Number of cycles fetch has run and was not squashing or blocked (Cycle)
system.cpu.fetch.squashCycles                23280358                       # Number of cycles fetch has spent squashing (Cycle)
system.cpu.fetch.miscStallCycles                    4                       # Number of cycles fetch has spent waiting on interrupts, or bad addresses, or out of MSHRs (Cycle)
system.cpu.fetch.pendingTrapStallCycles            12                       # Number of stall cycles due to pending traps (Cycle)
system.cpu.fetch.icacheWaitRetryStallCycles           46                       # Number of stall cycles due to full MSHR (Cycle)
system.cpu.fetch.cacheLines                 170441515                       # Number of cache lines fetched (Count)
system.cpu.fetch.icacheSquashes               3211092                       # Number of outstanding Icache misses that were squashed (Count)
system.cpu.fetch.nisnDist::samples         1540329353                       # Number of instructions fetched each cycle (Total) (Count)
system.cpu.fetch.nisnDist::mean              1.232244                       # Number of instructions fetched each cycle (Total) (Count)
system.cpu.fetch.nisnDist::stdev             2.557947                       # Number of instructions fetched each cycle (Total) (Count)
system.cpu.fetch.nisnDist::underflows               0      0.00%      0.00% # Number of instructions fetched each cycle (Total) (Count)
system.cpu.fetch.nisnDist::0               1194570834     77.55%     77.55% # Number of instructions fetched each cycle (Total) (Count)
system.cpu.fetch.nisnDist::1                 22656778      1.47%     79.02% # Number of instructions fetched each cycle (Total) (Count)
system.cpu.fetch.nisnDist::2                 36946248      2.40%     81.42% # Number of instructions fetched each cycle (Total) (Count)
system.cpu.fetch.nisnDist::3                 22886514      1.49%     82.91% # Number of instructions fetched each cycle (Total) (Count)
system.cpu.fetch.nisnDist::4                 41970206      2.72%     85.63% # Number of instructions fetched each cycle (Total) (Count)
system.cpu.fetch.nisnDist::5                 37312820      2.42%     88.06% # Number of instructions fetched each cycle (Total) (Count)
system.cpu.fetch.nisnDist::6                 31867603      2.07%     90.12% # Number of instructions fetched each cycle (Total) (Count)
system.cpu.fetch.nisnDist::7                 29745238      1.93%     92.06% # Number of instructions fetched each cycle (Total) (Count)
system.cpu.fetch.nisnDist::8                122373112      7.94%    100.00% # Number of instructions fetched each cycle (Total) (Count)
system.cpu.fetch.nisnDist::overflows                0      0.00%    100.00% # Number of instructions fetched each cycle (Total) (Count)
system.cpu.fetch.nisnDist::min_value                0                       # Number of instructions fetched each cycle (Total) (Count)
system.cpu.fetch.nisnDist::max_value                8                       # Number of instructions fetched each cycle (Total) (Count)
system.cpu.fetch.nisnDist::total           1540329353                       # Number of instructions fetched each cycle (Total) (Count)
system.cpu.fetch.branchRate                  0.169216                       # Number of branch fetches per cycle (Ratio)
system.cpu.fetch.rate                        1.084821                       # Number of inst fetches per cycle ((Count/Cycle))
system.cpu.icache.demandHits::cpu.inst      170440279                       # number of demand (read+write) hits (Count)
system.cpu.icache.demandHits::total         170440279                       # number of demand (read+write) hits (Count)
system.cpu.icache.overallHits::cpu.inst     170440279                       # number of overall hits (Count)
system.cpu.icache.overallHits::total        170440279                       # number of overall hits (Count)
system.cpu.icache.demandMisses::cpu.inst         1236                       # number of demand (read+write) misses (Count)
system.cpu.icache.demandMisses::total            1236                       # number of demand (read+write) misses (Count)
system.cpu.icache.overallMisses::cpu.inst         1236                       # number of overall misses (Count)
system.cpu.icache.overallMisses::total           1236                       # number of overall misses (Count)
system.cpu.icache.demandMissLatency::cpu.inst     80262255                       # number of demand (read+write) miss ticks (Tick)
system.cpu.icache.demandMissLatency::total     80262255                       # number of demand (read+write) miss ticks (Tick)
system.cpu.icache.overallMissLatency::cpu.inst     80262255                       # number of overall miss ticks (Tick)
system.cpu.icache.overallMissLatency::total     80262255                       # number of overall miss ticks (Tick)
system.cpu.icache.demandAccesses::cpu.inst    170441515                       # number of demand (read+write) accesses (Count)
system.cpu.icache.demandAccesses::total     170441515                       # number of demand (read+write) accesses (Count)
system.cpu.icache.overallAccesses::cpu.inst    170441515                       # number of overall (read+write) accesses (Count)
system.cpu.icache.overallAccesses::total    170441515                       # number of overall (read+write) accesses (Count)
system.cpu.icache.demandMissRate::cpu.inst     0.000007                       # miss rate for demand accesses (Ratio)
system.cpu.icache.demandMissRate::total      0.000007                       # miss rate for demand accesses (Ratio)
system.cpu.icache.overallMissRate::cpu.inst     0.000007                       # miss rate for overall accesses (Ratio)
system.cpu.icache.overallMissRate::total     0.000007                       # miss rate for overall accesses (Ratio)
system.cpu.icache.demandAvgMissLatency::cpu.inst 64937.099515                       # average overall miss latency in ticks ((Tick/Count))
system.cpu.icache.demandAvgMissLatency::total 64937.099515                       # average overall miss latency in ticks ((Tick/Count))
system.cpu.icache.overallAvgMissLatency::cpu.inst 64937.099515                       # average overall miss latency ((Tick/Count))
system.cpu.icache.overallAvgMissLatency::total 64937.099515                       # average overall miss latency ((Tick/Count))
system.cpu.icache.blockedCycles::no_mshrs         1165                       # number of cycles access was blocked (Cycle)
system.cpu.icache.blockedCycles::no_targets            0                       # number of cycles access was blocked (Cycle)
system.cpu.icache.blockedCauses::no_mshrs            8                       # number of times access was blocked (Count)
system.cpu.icache.blockedCauses::no_targets            0                       # number of times access was blocked (Count)
system.cpu.icache.avgBlocked::no_mshrs     145.625000                       # average number of cycles each access was blocked ((Cycle/Count))
system.cpu.icache.avgBlocked::no_targets          nan                       # average number of cycles each access was blocked ((Cycle/Count))
system.cpu.icache.demandMshrHits::cpu.inst          490                       # number of demand (read+write) MSHR hits (Count)
system.cpu.icache.demandMshrHits::total           490                       # number of demand (read+write) MSHR hits (Count)
system.cpu.icache.overallMshrHits::cpu.inst          490                       # number of overall MSHR hits (Count)
system.cpu.icache.overallMshrHits::total          490                       # number of overall MSHR hits (Count)
system.cpu.icache.demandMshrMisses::cpu.inst          746                       # number of demand (read+write) MSHR misses (Count)
system.cpu.icache.demandMshrMisses::total          746                       # number of demand (read+write) MSHR misses (Count)
system.cpu.icache.overallMshrMisses::cpu.inst          746                       # number of overall MSHR misses (Count)
system.cpu.icache.overallMshrMisses::total          746                       # number of overall MSHR misses (Count)
system.cpu.icache.demandMshrMissLatency::cpu.inst     52764579                       # number of demand (read+write) MSHR miss ticks (Tick)
system.cpu.icache.demandMshrMissLatency::total     52764579                       # number of demand (read+write) MSHR miss ticks (Tick)
system.cpu.icache.overallMshrMissLatency::cpu.inst     52764579                       # number of overall MSHR miss ticks (Tick)
system.cpu.icache.overallMshrMissLatency::total     52764579                       # number of overall MSHR miss ticks (Tick)
system.cpu.icache.demandMshrMissRate::cpu.inst     0.000004                       # mshr miss ratio for demand accesses (Ratio)
system.cpu.icache.demandMshrMissRate::total     0.000004                       # mshr miss ratio for demand accesses (Ratio)
system.cpu.icache.overallMshrMissRate::cpu.inst     0.000004                       # mshr miss ratio for overall accesses (Ratio)
system.cpu.icache.overallMshrMissRate::total     0.000004                       # mshr miss ratio for overall accesses (Ratio)
system.cpu.icache.demandAvgMshrMissLatency::cpu.inst 70729.998660                       # average overall mshr miss latency ((Tick/Count))
system.cpu.icache.demandAvgMshrMissLatency::total 70729.998660                       # average overall mshr miss latency ((Tick/Count))
system.cpu.icache.overallAvgMshrMissLatency::cpu.inst 70729.998660                       # average overall mshr miss latency ((Tick/Count))
system.cpu.icache.overallAvgMshrMissLatency::total 70729.998660                       # average overall mshr miss latency ((Tick/Count))
system.cpu.icache.replacements                    269                       # number of replacements (Count)
system.cpu.icache.ReadReq.hits::cpu.inst    170440279                       # number of ReadReq hits (Count)
system.cpu.icache.ReadReq.hits::total       170440279                       # number of ReadReq hits (Count)
system.cpu.icache.ReadReq.misses::cpu.inst         1236                       # number of ReadReq misses (Count)
system.cpu.icache.ReadReq.misses::total          1236                       # number of ReadReq misses (Count)
system.cpu.icache.ReadReq.missLatency::cpu.inst     80262255                       # number of ReadReq miss ticks (Tick)
system.cpu.icache.ReadReq.missLatency::total     80262255                       # number of ReadReq miss ticks (Tick)
system.cpu.icache.ReadReq.accesses::cpu.inst    170441515                       # number of ReadReq accesses(hits+misses) (Count)
system.cpu.icache.ReadReq.accesses::total    170441515                       # number of ReadReq accesses(hits+misses) (Count)
system.cpu.icache.ReadReq.missRate::cpu.inst     0.000007                       # miss rate for ReadReq accesses (Ratio)
system.cpu.icache.ReadReq.missRate::total     0.000007                       # miss rate for ReadReq accesses (Ratio)
system.cpu.icache.ReadReq.avgMissLatency::cpu.inst 64937.099515                       # average ReadReq miss latency ((Tick/Count))
system.cpu.icache.ReadReq.avgMissLatency::total 64937.099515                       # average ReadReq miss latency ((Tick/Count))
system.cpu.icache.ReadReq.mshrHits::cpu.inst          490                       # number of ReadReq MSHR hits (Count)
system.cpu.icache.ReadReq.mshrHits::total          490                       # number of ReadReq MSHR hits (Count)
system.cpu.icache.ReadReq.mshrMisses::cpu.inst          746                       # number of ReadReq MSHR misses (Count)
system.cpu.icache.ReadReq.mshrMisses::total          746                       # number of ReadReq MSHR misses (Count)
system.cpu.icache.ReadReq.mshrMissLatency::cpu.inst     52764579                       # number of ReadReq MSHR miss ticks (Tick)
system.cpu.icache.ReadReq.mshrMissLatency::total     52764579                       # number of ReadReq MSHR miss ticks (Tick)
system.cpu.icache.ReadReq.mshrMissRate::cpu.inst     0.000004                       # mshr miss rate for ReadReq accesses (Ratio)
system.cpu.icache.ReadReq.mshrMissRate::total     0.000004                       # mshr miss rate for ReadReq accesses (Ratio)
system.cpu.icache.ReadReq.avgMshrMissLatency::cpu.inst 70729.998660                       # average ReadReq mshr miss latency ((Tick/Count))
system.cpu.icache.ReadReq.avgMshrMissLatency::total 70729.998660                       # average ReadReq mshr miss latency ((Tick/Count))
system.cpu.icache.power_state.pwrStateResidencyTicks::UNDEFINED 428238921728                       # Cumulative time (in ticks) in various power states (Tick)
system.cpu.icache.tags.tagsInUse           372.860796                       # Average ticks per tags in use ((Tick/Count))
system.cpu.icache.tags.totalRefs            170441025                       # Total number of references to valid blocks. (Count)
system.cpu.icache.tags.sampledRefs                746                       # Sample count of references to valid blocks. (Count)
system.cpu.icache.tags.avgRefs           228473.223861                       # Average number of references to valid blocks. ((Count/Count))
system.cpu.icache.tags.warmupTick               81500                       # The tick when the warmup percentage was hit. (Tick)
system.cpu.icache.tags.occupancies::cpu.inst   372.860796                       # Average occupied blocks per tick, per requestor ((Count/Tick))
system.cpu.icache.tags.avgOccs::cpu.inst     0.728244                       # Average percentage of cache occupancy ((Ratio/Tick))
system.cpu.icache.tags.avgOccs::total        0.728244                       # Average percentage of cache occupancy ((Ratio/Tick))
system.cpu.icache.tags.occupanciesTaskId::1024          477                       # Occupied blocks per task id (Count)
system.cpu.icache.tags.ageTaskId_1024::4          477                       # Occupied blocks per task id, per block age (Count)
system.cpu.icache.tags.ratioOccsTaskId::1024     0.931641                       # Ratio of occupied blocks and all blocks, per task id (Ratio)
system.cpu.icache.tags.tagAccesses          681766806                       # Number of tag accesses (Count)
system.cpu.icache.tags.dataAccesses         681766806                       # Number of data accesses (Count)
system.cpu.icache.tags.power_state.pwrStateResidencyTicks::UNDEFINED 428238921728                       # Cumulative time (in ticks) in various power states (Tick)
system.cpu.iew.idleCycles                           0                       # Number of cycles IEW is idle (Cycle)
system.cpu.iew.squashCycles                  10834254                       # Number of cycles IEW is squashing (Cycle)
system.cpu.iew.blockCycles                  116441082                       # Number of cycles IEW is blocking (Cycle)
system.cpu.iew.unblockCycles                323085626                       # Number of cycles IEW is unblocking (Cycle)
system.cpu.iew.dispatchedInsts             1647532475                       # Number of instructions dispatched to IQ (Count)
system.cpu.iew.dispSquashedInsts              1956709                       # Number of squashed instructions skipped by dispatch (Count)
system.cpu.iew.dispLoadInsts                507311796                       # Number of dispatched load instructions (Count)
system.cpu.iew.dispStoreInsts               278110342                       # Number of dispatched store instructions (Count)
system.cpu.iew.dispNonSpecInsts                  3668                       # Number of dispatched non-speculative instructions (Count)
system.cpu.iew.iqFullEvents                   1704340                       # Number of times the IQ has become full, causing a stall (Count)
system.cpu.iew.lsqFullEvents                319256399                       # Number of times the LSQ has become full, causing a stall (Count)
system.cpu.iew.memOrderViolationEvents         303058                       # Number of memory order violations (Count)
system.cpu.iew.predictedTakenIncorrect        5897420                       # Number of branches that were predicted taken incorrectly (Count)
system.cpu.iew.predictedNotTakenIncorrect      6836055                       # Number of branches that were predicted not taken incorrectly (Count)
system.cpu.iew.branchMispredicts             12733475                       # Number of branch mispredicts detected at execute (Count)
system.cpu.iew.instsToCommit               1398057101                       # Cumulative count of insts sent to commit (Count)
system.cpu.iew.writebackCount              1382134753                       # Cumulative count of insts written-back (Count)
system.cpu.iew.producerInst                 793603890                       # Number of instructions producing a value (Count)
system.cpu.iew.consumerInst                1228264876                       # Number of instructions consuming a value (Count)
system.cpu.iew.wbRate                        0.897241                       # Insts written-back per cycle ((Count/Cycle))
system.cpu.iew.wbFanout                      0.646118                       # Average fanout of values written-back ((Count/Count))
system.cpu.lsq0.forwLoads                    47709423                       # Number of loads that had data forwarded from stores (Count)
system.cpu.lsq0.squashedLoads               140600451                       # Number of loads squashed (Count)
system.cpu.lsq0.ignoredResponses               140283                       # Number of memory responses ignored because the instruction is squashed (Count)
system.cpu.lsq0.memOrderViolation              303058                       # Number of memory ordering violations (Count)
system.cpu.lsq0.squashedStores               62930040                       # Number of stores squashed (Count)
system.cpu.lsq0.rescheduledLoads              7993274                       # Number of loads that were rescheduled (Count)
system.cpu.lsq0.blockedByCache                9737863                       # Number of times an access to memory failed due to the cache being blocked (Count)
system.cpu.lsq0.loadToUse::samples          359040299                       # Distribution of cycle latency between the first time a load is issued and its completion (Unspecified)
system.cpu.lsq0.loadToUse::mean             15.503391                       # Distribution of cycle latency between the first time a load is issued and its completion (Unspecified)
system.cpu.lsq0.loadToUse::stdev            77.580154                       # Distribution of cycle latency between the first time a load is issued and its completion (Unspecified)
system.cpu.lsq0.loadToUse::0-9              319633003     89.02%     89.02% # Distribution of cycle latency between the first time a load is issued and its completion (Unspecified)
system.cpu.lsq0.loadToUse::10-19              8649961      2.41%     91.43% # Distribution of cycle latency between the first time a load is issued and its completion (Unspecified)
system.cpu.lsq0.loadToUse::20-29              3230802      0.90%     92.33% # Distribution of cycle latency between the first time a load is issued and its completion (Unspecified)
system.cpu.lsq0.loadToUse::30-39              1320010      0.37%     92.70% # Distribution of cycle latency between the first time a load is issued and its completion (Unspecified)
system.cpu.lsq0.loadToUse::40-49              8969059      2.50%     95.20% # Distribution of cycle latency between the first time a load is issued and its completion (Unspecified)
system.cpu.lsq0.loadToUse::50-59              2610080      0.73%     95.93% # Distribution of cycle latency between the first time a load is issued and its completion (Unspecified)
[...]
system.mem_ctrl.dram.perBankRdBursts::7        298688                       # Per bank write bursts (Count)
system.mem_ctrl.dram.perBankRdBursts::8        298422                       # Per bank write bursts (Count)
system.mem_ctrl.dram.perBankRdBursts::9        297298                       # Per bank write bursts (Count)
system.mem_ctrl.dram.perBankRdBursts::10       296961                       # Per bank write bursts (Count)
system.mem_ctrl.dram.perBankRdBursts::11       297312                       # Per bank write bursts (Count)
system.mem_ctrl.dram.perBankRdBursts::12       296059                       # Per bank write bursts (Count)
system.mem_ctrl.dram.perBankRdBursts::13       297000                       # Per bank write bursts (Count)
system.mem_ctrl.dram.perBankRdBursts::14       296233                       # Per bank write bursts (Count)
system.mem_ctrl.dram.perBankRdBursts::15       298119                       # Per bank write bursts (Count)
system.mem_ctrl.dram.perBankRdBursts::16       297490                       # Per bank write bursts (Count)
system.mem_ctrl.dram.perBankRdBursts::17       294936                       # Per bank write bursts (Count)
system.mem_ctrl.dram.perBankRdBursts::18       296996                       # Per bank write bursts (Count)
system.mem_ctrl.dram.perBankRdBursts::19       298917                       # Per bank write bursts (Count)
system.mem_ctrl.dram.perBankRdBursts::20       296160                       # Per bank write bursts (Count)
system.mem_ctrl.dram.perBankRdBursts::21       295972                       # Per bank write bursts (Count)
system.mem_ctrl.dram.perBankRdBursts::22       296226                       # Per bank write bursts (Count)
system.mem_ctrl.dram.perBankRdBursts::23       296309                       # Per bank write bursts (Count)
system.mem_ctrl.dram.perBankRdBursts::24       297018                       # Per bank write bursts (Count)
system.mem_ctrl.dram.perBankRdBursts::25       296114                       # Per bank write bursts (Count)
system.mem_ctrl.dram.perBankRdBursts::26       296433                       # Per bank write bursts (Count)
system.mem_ctrl.dram.perBankRdBursts::27       294114                       # Per bank write bursts (Count)
system.mem_ctrl.dram.perBankRdBursts::28       300301                       # Per bank write bursts (Count)
system.mem_ctrl.dram.perBankRdBursts::29       301651                       # Per bank write bursts (Count)
system.mem_ctrl.dram.perBankRdBursts::30       300330                       # Per bank write bursts (Count)
system.mem_ctrl.dram.perBankRdBursts::31       298724                       # Per bank write bursts (Count)
system.mem_ctrl.dram.perBankWrBursts::0        163089                       # Per bank write bursts (Count)
system.mem_ctrl.dram.perBankWrBursts::1        164690                       # Per bank write bursts (Count)
system.mem_ctrl.dram.perBankWrBursts::2        163791                       # Per bank write bursts (Count)
system.mem_ctrl.dram.perBankWrBursts::3        163822                       # Per bank write bursts (Count)
system.mem_ctrl.dram.perBankWrBursts::4        164337                       # Per bank write bursts (Count)
system.mem_ctrl.dram.perBankWrBursts::5        163901                       # Per bank write bursts (Count)
system.mem_ctrl.dram.perBankWrBursts::6        164816                       # Per bank write bursts (Count)
system.mem_ctrl.dram.perBankWrBursts::7        163849                       # Per bank write bursts (Count)
system.mem_ctrl.dram.perBankWrBursts::8        163711                       # Per bank write bursts (Count)
system.mem_ctrl.dram.perBankWrBursts::9        162777                       # Per bank write bursts (Count)
system.mem_ctrl.dram.perBankWrBursts::10       162720                       # Per bank write bursts (Count)
system.mem_ctrl.dram.perBankWrBursts::11       162476                       # Per bank write bursts (Count)
system.mem_ctrl.dram.perBankWrBursts::12       162471                       # Per bank write bursts (Count)
system.mem_ctrl.dram.perBankWrBursts::13       163172                       # Per bank write bursts (Count)
system.mem_ctrl.dram.perBankWrBursts::14       162821                       # Per bank write bursts (Count)
system.mem_ctrl.dram.perBankWrBursts::15       163366                       # Per bank write bursts (Count)
system.mem_ctrl.dram.perBankWrBursts::16       163277                       # Per bank write bursts (Count)
system.mem_ctrl.dram.perBankWrBursts::17       161795                       # Per bank write bursts (Count)
system.mem_ctrl.dram.perBankWrBursts::18       163050                       # Per bank write bursts (Count)
system.mem_ctrl.dram.perBankWrBursts::19       163254                       # Per bank write bursts (Count)
system.mem_ctrl.dram.perBankWrBursts::20       162562                       # Per bank write bursts (Count)
system.mem_ctrl.dram.perBankWrBursts::21       161087                       # Per bank write bursts (Count)
system.mem_ctrl.dram.perBankWrBursts::22       161753                       # Per bank write bursts (Count)
system.mem_ctrl.dram.perBankWrBursts::23       160800                       # Per bank write bursts (Count)
system.mem_ctrl.dram.perBankWrBursts::24       162140                       # Per bank write bursts (Count)
system.mem_ctrl.dram.perBankWrBursts::25       161033                       # Per bank write bursts (Count)
system.mem_ctrl.dram.perBankWrBursts::26       161595                       # Per bank write bursts (Count)
system.mem_ctrl.dram.perBankWrBursts::27       159760                       # Per bank write bursts (Count)
system.mem_ctrl.dram.perBankWrBursts::28       164306                       # Per bank write bursts (Count)
system.mem_ctrl.dram.perBankWrBursts::29       164313                       # Per bank write bursts (Count)
system.mem_ctrl.dram.perBankWrBursts::30       164197                       # Per bank write bursts (Count)
system.mem_ctrl.dram.perBankWrBursts::31       163119                       # Per bank write bursts (Count)
system.mem_ctrl.dram.totQLat             180638106628                       # Total ticks spent queuing (Tick)
system.mem_ctrl.dram.totBusLat            31768144324                       # Total ticks spent in databus transfers (Tick)
system.mem_ctrl.dram.totMemAccLat        347411330072                       # Total ticks spent from burst creation until serviced by the DRAM (Tick)
system.mem_ctrl.dram.avgQLat                 18946.22                       # Average queueing delay per DRAM burst ((Tick/Count))
system.mem_ctrl.dram.avgBusLat                3332.00                       # Average bus latency per DRAM burst ((Tick/Count))
system.mem_ctrl.dram.avgMemAccLat            36438.22                       # Average memory access latency per DRAM burst ((Tick/Count))
system.mem_ctrl.dram.readRowHits              8526968                       # Number of row buffer hits during reads (Count)
system.mem_ctrl.dram.writeRowHits             4470554                       # Number of row buffer hits during writes (Count)
system.mem_ctrl.dram.readRowHitRate             89.44                       # Row buffer hit rate for reads (Ratio)
system.mem_ctrl.dram.writeRowHitRate            85.74                       # Row buffer hit rate for writes (Ratio)
system.mem_ctrl.dram.bytesPerActivate::samples      1750585                       # Bytes accessed per row activation (Byte)
system.mem_ctrl.dram.bytesPerActivate::mean   539.179102                       # Bytes accessed per row activation (Byte)
system.mem_ctrl.dram.bytesPerActivate::gmean   349.491609                       # Bytes accessed per row activation (Byte)
system.mem_ctrl.dram.bytesPerActivate::stdev   380.511740                       # Bytes accessed per row activation (Byte)
system.mem_ctrl.dram.bytesPerActivate::0-127       409294     23.38%     23.38% # Bytes accessed per row activation (Byte)
system.mem_ctrl.dram.bytesPerActivate::128-255       145415      8.31%     31.69% # Bytes accessed per row activation (Byte)
system.mem_ctrl.dram.bytesPerActivate::256-383        60500      3.46%     35.14% # Bytes accessed per row activation (Byte)
system.mem_ctrl.dram.bytesPerActivate::384-511        65397      3.74%     38.88% # Bytes accessed per row activation (Byte)
system.mem_ctrl.dram.bytesPerActivate::512-639       413589     23.63%     62.50% # Bytes accessed per row activation (Byte)
system.mem_ctrl.dram.bytesPerActivate::640-767        53243      3.04%     65.55% # Bytes accessed per row activation (Byte)
system.mem_ctrl.dram.bytesPerActivate::768-895        40151      2.29%     67.84% # Bytes accessed per row activation (Byte)
system.mem_ctrl.dram.bytesPerActivate::896-1023        33529      1.92%     69.75% # Bytes accessed per row activation (Byte)
system.mem_ctrl.dram.bytesPerActivate::1024-1151       529467     30.25%    100.00% # Bytes accessed per row activation (Byte)
system.mem_ctrl.dram.bytesPerActivate::total      1750585                       # Bytes accessed per row activation (Byte)
system.mem_ctrl.dram.bytesRead              610192448                       # Total bytes read (Byte)
system.mem_ctrl.dram.bytesWritten           333686400                       # Total bytes written (Byte)
system.mem_ctrl.dram.avgRdBW              1424.887877                       # Average DRAM read bandwidth in MiBytes/s ((Byte/Second))
system.mem_ctrl.dram.avgWrBW               779.206147                       # Average DRAM write bandwidth in MiBytes/s ((Byte/Second))
system.mem_ctrl.dram.peakBW                  19207.00                       # Theoretical peak bandwidth in MiByte/s ((Byte/Second))
system.mem_ctrl.dram.busUtil                    11.48                       # Data bus utilization in percentage (Ratio)
system.mem_ctrl.dram.busUtilRead                 7.42                       # Data bus utilization in percentage for reads (Ratio)
system.mem_ctrl.dram.busUtilWrite                4.06                       # Data bus utilization in percentage for writes (Ratio)
system.mem_ctrl.dram.pageHitRate                88.13                       # Row buffer hit rate, read and write combined (Ratio)
system.mem_ctrl.dram.power_state.pwrStateResidencyTicks::UNDEFINED 428238921728                       # Cumulative time (in ticks) in various power states (Tick)
system.mem_ctrl.dram.rank0.actEnergy     2747957337.216056                       # Energy for activate commands per rank (pJ) (Joule)
system.mem_ctrl.dram.rank0.preEnergy     3653374049.605965                       # Energy for precharge commands per rank (pJ) (Joule)
system.mem_ctrl.dram.rank0.readEnergy    20091749812.106407                       # Energy for read commands per rank (pJ) (Joule)
system.mem_ctrl.dram.rank0.writeEnergy   9831507663.262316                       # Energy for write commands per rank (pJ) (Joule)
system.mem_ctrl.dram.rank0.refreshEnergy 76198540251.180603                       # Energy for refresh commands per rank (pJ) (Joule)
system.mem_ctrl.dram.rank0.actBackEnergy 226151978461.729706                       # Energy for active background per rank (pJ) (Joule)
system.mem_ctrl.dram.rank0.preBackEnergy 105787876716.462326                       # Energy for precharge background per rank (pJ) (Joule)
system.mem_ctrl.dram.rank0.actPowerDownEnergy            0                       # Energy for active power-down per rank (pJ) (Joule)
system.mem_ctrl.dram.rank0.prePowerDownEnergy            0                       # Energy for precharge power-down per rank (pJ) (Joule)
system.mem_ctrl.dram.rank0.selfRefreshEnergy            0                       # Energy for self refresh per rank (pJ) (Joule)
system.mem_ctrl.dram.rank0.totalEnergy   444462984291.667480                       # Total energy per rank (pJ) (Joule)
system.mem_ctrl.dram.rank0.averagePower   1037.885539                       # Core power per rank (mW) (Watt)
system.mem_ctrl.dram.rank0.totalIdleTime            0                       # Total Idle time Per DRAM Rank (Tick)
system.mem_ctrl.dram.rank0.pwrStateTime::IDLE 160127450764                       # Time in different power states (Tick)
system.mem_ctrl.dram.rank0.pwrStateTime::REF  19250700000                       # Time in different power states (Tick)
system.mem_ctrl.dram.rank0.pwrStateTime::SREF            0                       # Time in different power states (Tick)
system.mem_ctrl.dram.rank0.pwrStateTime::PRE_PDN            0                       # Time in different power states (Tick)
system.mem_ctrl.dram.rank0.pwrStateTime::ACT 248860770964                       # Time in different power states (Tick)
system.mem_ctrl.dram.rank0.pwrStateTime::ACT_PDN            0                       # Time in different power states (Tick)
system.mem_ctrl.dram.rank1.actEnergy     2711683132.704070                       # Energy for activate commands per rank (pJ) (Joule)
system.mem_ctrl.dram.rank1.preEnergy     3605147959.761204                       # Energy for precharge commands per rank (pJ) (Joule)
system.mem_ctrl.dram.rank1.readEnergy    20012355582.506821                       # Energy for read commands per rank (pJ) (Joule)
system.mem_ctrl.dram.rank1.writeEnergy   9764726706.334272                       # Energy for write commands per rank (pJ) (Joule)
system.mem_ctrl.dram.rank1.refreshEnergy 76198540251.180603                       # Energy for refresh commands per rank (pJ) (Joule)
system.mem_ctrl.dram.rank1.actBackEnergy 222197627119.207245                       # Energy for active background per rank (pJ) (Joule)
system.mem_ctrl.dram.rank1.preBackEnergy 108826248369.465652                       # Energy for precharge background per rank (pJ) (Joule)
system.mem_ctrl.dram.rank1.actPowerDownEnergy            0                       # Energy for active power-down per rank (pJ) (Joule)
system.mem_ctrl.dram.rank1.prePowerDownEnergy            0                       # Energy for precharge power-down per rank (pJ) (Joule)
system.mem_ctrl.dram.rank1.selfRefreshEnergy            0                       # Energy for self refresh per rank (pJ) (Joule)
system.mem_ctrl.dram.rank1.totalEnergy   443316329121.266663                       # Total energy per rank (pJ) (Joule)
system.mem_ctrl.dram.rank1.averagePower   1035.207933                       # Core power per rank (mW) (Watt)
system.mem_ctrl.dram.rank1.totalIdleTime            0                       # Total Idle time Per DRAM Rank (Tick)
system.mem_ctrl.dram.rank1.pwrStateTime::IDLE 164791024600                       # Time in different power states (Tick)
system.mem_ctrl.dram.rank1.pwrStateTime::REF  19250700000                       # Time in different power states (Tick)
system.mem_ctrl.dram.rank1.pwrStateTime::SREF            0                       # Time in different power states (Tick)
system.mem_ctrl.dram.rank1.pwrStateTime::PRE_PDN            0                       # Time in different power states (Tick)
system.mem_ctrl.dram.rank1.pwrStateTime::ACT 244197197128                       # Time in different power states (Tick)
system.mem_ctrl.dram.rank1.pwrStateTime::ACT_PDN            0                       # Time in different power states (Tick)
system.mem_ctrl.power_state.pwrStateResidencyTicks::UNDEFINED 428238921728                       # Cumulative time (in ticks) in various power states (Tick)
system.membus.transDist::ReadResp             4472734                       # Transaction distribution (Count)
system.membus.transDist::WritebackDirty       5213904                       # Transaction distribution (Count)
system.membus.transDist::CleanEvict           4289802                       # Transaction distribution (Count)
system.membus.transDist::ReadExReq            5064297                       # Transaction distribution (Count)
system.membus.transDist::ReadExResp           5064297                       # Transaction distribution (Count)
system.membus.transDist::ReadSharedReq        4472734                       # Transaction distribution (Count)
system.membus.pktCount_system.l2cache.mem_side_port::system.mem_ctrl.port     28577768                       # Packet count per connected requestor and responder (Count)
system.membus.pktCount::total                28577768                       # Packet count per connected requestor and responder (Count)
system.membus.pktSize_system.l2cache.mem_side_port::system.mem_ctrl.port    944059840                       # Cumulative packet size per connected requestor and responder (Byte)
system.membus.pktSize::total                944059840                       # Cumulative packet size per connected requestor and responder (Byte)
system.membus.snoops                                0                       # Total snoops (Count)
system.membus.snoopTraffic                          0                       # Total snoop traffic (Byte)
system.membus.snoopFanout::samples            9537031                       # Request fanout histogram (Count)
system.membus.snoopFanout::mean                     0                       # Request fanout histogram (Count)
system.membus.snoopFanout::stdev                    0                       # Request fanout histogram (Count)
system.membus.snoopFanout::underflows               0      0.00%      0.00% # Request fanout histogram (Count)
system.membus.snoopFanout::0                  9537031    100.00%    100.00% # Request fanout histogram (Count)
system.membus.snoopFanout::1                        0      0.00%    100.00% # Request fanout histogram (Count)
system.membus.snoopFanout::overflows                0      0.00%    100.00% # Request fanout histogram (Count)
system.membus.snoopFanout::min_value                0                       # Request fanout histogram (Count)
system.membus.snoopFanout::max_value                0                       # Request fanout histogram (Count)
system.membus.snoopFanout::total              9537031                       # Request fanout histogram (Count)
system.membus.power_state.pwrStateResidencyTicks::UNDEFINED 428238921728                       # Cumulative time (in ticks) in various power states (Tick)
system.membus.reqLayer0.occupancy         21108037206                       # Layer occupancy (ticks) (Tick)
system.membus.reqLayer0.utilization               0.0                       # Layer utilization (Ratio)
system.membus.respLayer0.occupancy        25445565282                       # Layer occupancy (ticks) (Tick)
system.membus.respLayer0.utilization              0.1                       # Layer utilization (Ratio)
system.membus.snoop_filter.totRequests       19040737                       # Total number of requests made to the snoop filter. (Count)
system.membus.snoop_filter.hitSingleRequests      9503789                       # Number of requests hitting in the snoop filter with a single holder of the requested data. (Count)
system.membus.snoop_filter.hitMultiRequests            0                       # Number of requests hitting in the snoop filter with multiple (>1) holders of the requested data. (Count)
system.membus.snoop_filter.totSnoops                0                       # Total number of snoops made to the snoop filter. (Count)
system.membus.snoop_filter.hitSingleSnoops            0                       # Number of snoops hitting in the snoop filter with a single holder of the requested data. (Count)
system.membus.snoop_filter.hitMultiSnoops            0                       # Number of snoops hitting in the snoop filter with multiple (>1) holders of the requested data. (Count)
system.workload.inst.arm                            0                       # number of arm instructions executed (Count)
system.workload.inst.quiesce                        0                       # number of quiesce instructions executed (Count)

---------- End Simulation Statistics   ----------
