
---------- Begin Simulation Statistics ----------
simSeconds                                   2.140297                       # Number of seconds simulated (Second)
simTicks                                 2140297288866                       # Number of ticks simulated (Tick)
finalTick                                2140297288866                       # Number of ticks from beginning of simulation (restored from checkpoints and never reset) (Tick)
simFreq                                  1000000000000                       # The number of ticks per simulated second ((Tick/Second))
hostSeconds                                   4381.44                       # Real time elapsed on the host (Second)
hostTickRate                                488491566                       # The number of ticks simulated per host second (ticks/s) ((Tick/Second))
hostMemory                                    2296668                       # Number of bytes of host memory used (Byte)
simInsts                                   1000000000                       # Number of instructions simulated (Count)
simOps                                     1160112256                       # Number of ops (including micro ops) simulated (Count)
hostInstRate                                   228235                       # Simulator instruction rate (inst/s) ((Count/Second))
hostOpRate                                     264779                       # Simulator op (including micro ops) rate (op/s) ((Count/Second))
system.clk_domain.clock                           500                       # Clock period in ticks (Tick)
system.clk_domain.voltage_domain.voltage            1                       # Voltage in Volts (Volt)
system.cpu.numCycles                        642153403                       # Number of cpu cycles simulated (Cycle)
system.cpu.numWorkItemsStarted                      0                       # Number of work items this cpu started (Count)
system.cpu.numWorkItemsCompleted                    0                       # Number of work items this cpu completed (Count)
system.cpu.instsAdded                      1611074710                       # Number of instructions added to the IQ (excludes non-spec) (Count)
system.cpu.nonSpecInstsAdded                     6611                       # Number of non-speculative instructions added to the IQ (Count)
system.cpu.instsIssued                     1429948938                       # Number of instructions issued (Count)
system.cpu.squashedInstsIssued                1294420                       # Number of squashed instructions issued (Count)
system.cpu.squashedInstsExamined            450968960                       # Number of squashed instructions iterated over during squash; mainly for profiling (Count)
system.cpu.squashedOperandsExamined        1195011232                       # Number of squashed operands that are examined and possibly removed from graph (Count)
system.cpu.squashedNonSpecRemoved                6072                       # Number of squashed non-spec instructions that were removed (Count)
system.cpu.numIssuedDist::samples           642151629                       # Number of insts issued each cycle (Count)
system.cpu.numIssuedDist::mean               2.226809                       # Number of insts issued each cycle (Count)
system.cpu.numIssuedDist::stdev              2.068004                       # Number of insts issued each cycle (Count)
system.cpu.numIssuedDist::underflows                0      0.00%      0.00% # Number of insts issued each cycle (Count)
system.cpu.numIssuedDist::0                 188161390     29.30%     29.30% # Number of insts issued each cycle (Count)
system.cpu.numIssuedDist::1                  97703292     15.21%     44.52% # Number of insts issued each cycle (Count)
system.cpu.numIssuedDist::2                  95334347     14.85%     59.36% # Number of insts issued each cycle (Count)
system.cpu.numIssuedDist::3                  79310676     12.35%     71.71% # Number of insts issued each cycle (Count)
system.cpu.numIssuedDist::4                  86571626     13.48%     85.20% # Number of insts issued each cycle (Count)
system.cpu.numIssuedDist::5                  41905106      6.53%     91.72% # Number of insts issued each cycle (Count)
system.cpu.numIssuedDist::6                  32310339      5.03%     96.75% # Number of insts issued each cycle (Count)
system.cpu.numIssuedDist::7                  12867968      2.00%     98.76% # Number of insts issued each cycle (Count)
system.cpu.numIssuedDist::8                   7986885      1.24%    100.00% # Number of insts issued each cycle (Count)
system.cpu.numIssuedDist::overflows                 0      0.00%    100.00% # Number of insts issued each cycle (Count)
system.cpu.numIssuedDist::min_value                 0                       # Number of insts issued each cycle (Count)
system.cpu.numIssuedDist::max_value                 8                       # Number of insts issued each cycle (Count)
system.cpu.numIssuedDist::total             642151629                       # Number of insts issued each cycle (Count)
system.cpu.statFuBusy::No_OpClass                   0      0.00%      0.00% # attempts to use FU when none available (Count)
system.cpu.statFuBusy::IntAlu                 2373171      4.98%      4.98% # attempts to use FU when none available (Count)
system.cpu.statFuBusy::IntMult                      0      0.00%      4.98% # attempts to use FU when none available (Count)
system.cpu.statFuBusy::IntDiv                       0      0.00%      4.98% # attempts to use FU when none available (Count)
system.cpu.statFuBusy::FloatAdd                     0      0.00%      4.98% # attempts to use FU when none available (Count)
system.cpu.statFuBusy::FloatCmp                     0      0.00%      4.98% # attempts to use FU when none available (Count)
system.cpu.statFuBusy::FloatCvt                     0      0.00%      4.98% # attempts to use FU when none available (Count)
system.cpu.statFuBusy::FloatMult                    0      0.00%      4.98% # attempts to use FU when none available (Count)
system.cpu.statFuBusy::FloatMultAcc                 0      0.00%      4.98% # attempts to use FU when none available (Count)
system.cpu.statFuBusy::FloatDiv                     0      0.00%      4.98% # attempts to use FU when none available (Count)
system.cpu.statFuBusy::FloatMisc                    0      0.00%      4.98% # attempts to use FU when none available (Count)
system.cpu.statFuBusy::FloatSqrt                    0      0.00%      4.98% # attempts to use FU when none available (Count)
system.cpu.statFuBusy::SimdAdd                      0      0.00%      4.98% # attempts to use FU when none available (Count)
system.cpu.statFuBusy::SimdAddAcc                   0      0.00%      4.98% # attempts to use FU when none available (Count)
system.cpu.statFuBusy::SimdAlu                      0      0.00%      4.98% # attempts to use FU when none available (Count)
system.cpu.statFuBusy::SimdCmp                      0      0.00%      4.98% # attempts to use FU when none available (Count)
system.cpu.statFuBusy::SimdCvt                      0      0.00%      4.98% # attempts to use FU when none available (Count)
system.cpu.statFuBusy::SimdMisc                     0      0.00%      4.98% # attempts to use FU when none available (Count)
system.cpu.statFuBusy::SimdMult                     0      0.00%      4.98% # attempts to use FU when none available (Count)
system.cpu.statFuBusy::SimdMultAcc                  0      0.00%      4.98% # attempts to use FU when none available (Count)
system.cpu.statFuBusy::SimdShift                    0      0.00%      4.98% # attempts to use FU when none available (Count)
system.cpu.statFuBusy::SimdShiftAcc                 0      0.00%      4.98% # attempts to use FU when none available (Count)
system.cpu.statFuBusy::SimdDiv                      0      0.00%      4.98% # attempts to use FU when none available (Count)
system.cpu.statFuBusy::SimdSqrt                     0      0.00%      4.98% # attempts to use FU when none available (Count)
system.cpu.statFuBusy::SimdFloatAdd                 0      0.00%      4.98% # attempts to use FU when none available (Count)
system.cpu.statFuBusy::SimdFloatAlu                 0      0.00%      4.98% # attempts to use FU when none available (Count)
system.cpu.statFuBusy::SimdFloatCmp                 0      0.00%      4.98% # attempts to use FU when none available (Count)
system.cpu.statFuBusy::SimdFloatCvt                 0      0.00%      4.98% # attempts to use FU when none available (Count)
system.cpu.statFuBusy::SimdFloatDiv                 0      0.00%      4.98% # attempts to use FU when none available (Count)
system.cpu.statFuBusy::SimdFloatMisc                0      0.00%      4.98% # attempts to use FU when none available (Count)
system.cpu.statFuBusy::SimdFloatMult                0      0.00%      4.98% # attempts to use FU when none available (Count)
system.cpu.statFuBusy::SimdFloatMultAcc             0      0.00%      4.98% # attempts to use FU when none available (Count)
system.cpu.statFuBusy::SimdFloatSqrt                0      0.00%      4.98% # attempts to use FU when none available (Count)
system.cpu.statFuBusy::SimdReduceAdd                0      0.00%      4.98% # attempts to use FU when none available (Count)
system.cpu.statFuBusy::SimdReduceAlu                0      0.00%      4.98% # attempts to use FU when none available (Count)
system.cpu.statFuBusy::SimdReduceCmp                0      0.00%      4.98% # attempts to use FU when none available (Count)
system.cpu.statFuBusy::SimdFloatReduceAdd            0      0.00%      4.98% # attempts to use FU when none available (Count)
system.cpu.statFuBusy::SimdFloatReduceCmp            0      0.00%      4.98% # attempts to use FU when none available (Count)
system.cpu.statFuBusy::SimdAes                      0      0.00%      4.98% # attempts to use FU when none available (Count)
system.cpu.statFuBusy::SimdAesMix                   0      0.00%      4.98% # attempts to use FU when none available (Count)
system.cpu.statFuBusy::SimdSha1Hash                 0      0.00%      4.98% # attempts to use FU when none available (Count)
system.cpu.statFuBusy::SimdSha1Hash2                0      0.00%      4.98% # attempts to use FU when none available (Count)
system.cpu.statFuBusy::SimdSha256Hash               0      0.00%      4.98% # attempts to use FU when none available (Count)
system.cpu.statFuBusy::SimdSha256Hash2              0      0.00%      4.98% # attempts to use FU when none available (Count)
system.cpu.statFuBusy::SimdShaSigma2                0      0.00%      4.98% # attempts to use FU when none available (Count)
system.cpu.statFuBusy::SimdShaSigma3                0      0.00%      4.98% # attempts to use FU when none available (Count)
system.cpu.statFuBusy::SimdPredAlu                  0      0.00%      4.98% # attempts to use FU when none available (Count)
system.cpu.statFuBusy::MemRead               36626965     76.92%     81.90% # attempts to use FU when none available (Count)
system.cpu.statFuBusy::MemWrite               8619797     18.10%    100.00% # attempts to use FU when none available (Count)
system.cpu.statFuBusy::FloatMemRead                 0      0.00%    100.00% # attempts to use FU when none available (Count)
system.cpu.statFuBusy::FloatMemWrite                0      0.00%    100.00% # attempts to use FU when none available (Count)
system.cpu.statFuBusy::IprAccess                    0      0.00%    100.00% # attempts to use FU when none available (Count)
system.cpu.statFuBusy::InstPrefetch                 0      0.00%    100.00% # attempts to use FU when none available (Count)
system.cpu.statIssuedInstType_0::No_OpClass            2      0.00%      0.00% # Number of instructions issued per FU type, per thread (Count)
system.cpu.statIssuedInstType_0::IntAlu     724551333     50.67%     50.67% # Number of instructions issued per FU type, per thread (Count)
system.cpu.statIssuedInstType_0::IntMult          850      0.00%     50.67% # Number of instructions issued per FU type, per thread (Count)
system.cpu.statIssuedInstType_0::IntDiv             0      0.00%     50.67% # Number of instructions issued per FU type, per thread (Count)
system.cpu.statIssuedInstType_0::FloatAdd            0      0.00%     50.67% # Number of instructions issued per FU type, per thread (Count)
system.cpu.statIssuedInstType_0::FloatCmp            0      0.00%     50.67% # Number of instructions issued per FU type, per thread (Count)
system.cpu.statIssuedInstType_0::FloatCvt            0      0.00%     50.67% # Number of instructions issued per FU type, per thread (Count)
system.cpu.statIssuedInstType_0::FloatMult            0      0.00%     50.67% # Number of instructions issued per FU type, per thread (Count)
system.cpu.statIssuedInstType_0::FloatMultAcc            0      0.00%     50.67% # Number of instructions issued per FU type, per thread (Count)
system.cpu.statIssuedInstType_0::FloatDiv            0      0.00%     50.67% # Number of instructions issued per FU type, per thread (Count)
system.cpu.statIssuedInstType_0::FloatMisc            0      0.00%     50.67% # Number of instructions issued per FU type, per thread (Count)
system.cpu.statIssuedInstType_0::FloatSqrt            0      0.00%     50.67% # Number of instructions issued per FU type, per thread (Count)
system.cpu.statIssuedInstType_0::SimdAdd            0      0.00%     50.67% # Number of instructions issued per FU type, per thread (Count)
system.cpu.statIssuedInstType_0::SimdAddAcc            0      0.00%     50.67% # Number of instructions issued per FU type, per thread (Count)
system.cpu.statIssuedInstType_0::SimdAlu            0      0.00%     50.67% # Number of instructions issued per FU type, per thread (Count)
system.cpu.statIssuedInstType_0::SimdCmp            0      0.00%     50.67% # Number of instructions issued per FU type, per thread (Count)
system.cpu.statIssuedInstType_0::SimdCvt            0      0.00%     50.67% # Number of instructions issued per FU type, per thread (Count)
system.cpu.statIssuedInstType_0::SimdMisc            0      0.00%     50.67% # Number of instructions issued per FU type, per thread (Count)
system.cpu.statIssuedInstType_0::SimdMult            0      0.00%     50.67% # Number of instructions issued per FU type, per thread (Count)
system.cpu.statIssuedInstType_0::SimdMultAcc            0      0.00%     50.67% # Number of instructions issued per FU type, per thread (Count)
system.cpu.statIssuedInstType_0::SimdShift            0      0.00%     50.67% # Number of instructions issued per FU type, per thread (Count)
system.cpu.statIssuedInstType_0::SimdShiftAcc            0      0.00%     50.67% # Number of instructions issued per FU type, per thread (Count)
system.cpu.statIssuedInstType_0::SimdDiv            0      0.00%     50.67% # Number of instructions issued per FU type, per thread (Count)
system.cpu.statIssuedInstType_0::SimdSqrt            0      0.00%     50.67% # Number of instructions issued per FU type, per thread (Count)
system.cpu.statIssuedInstType_0::SimdFloatAdd            0      0.00%     50.67% # Number of instructions issued per FU type, per thread (Count)
system.cpu.statIssuedInstType_0::SimdFloatAlu            0      0.00%     50.67% # Number of instructions issued per FU type, per thread (Count)
system.cpu.statIssuedInstType_0::SimdFloatCmp            0      0.00%     50.67% # Number of instructions issued per FU type, per thread (Count)
system.cpu.statIssuedInstType_0::SimdFloatCvt           38      0.00%     50.67% # Number of instructions issued per FU type, per thread (Count)
system.cpu.statIssuedInstType_0::SimdFloatDiv            6      0.00%     50.67% # Number of instructions issued per FU type, per thread (Count)
system.cpu.statIssuedInstType_0::SimdFloatMisc           23      0.00%     50.67% # Number of instructions issued per FU type, per thread (Count)
system.cpu.statIssuedInstType_0::SimdFloatMult           10      0.00%     50.67% # Number of instructions issued per FU type, per thread (Count)
system.cpu.statIssuedInstType_0::SimdFloatMultAcc            0      0.00%     50.67% # Number of instructions issued per FU type, per thread (Count)
system.cpu.statIssuedInstType_0::SimdFloatSqrt            0      0.00%     50.67% # Number of instructions issued per FU type, per thread (Count)
system.cpu.statIssuedInstType_0::SimdReduceAdd            0      0.00%     50.67% # Number of instructions issued per FU type, per thread (Count)
system.cpu.statIssuedInstType_0::SimdReduceAlu            0      0.00%     50.67% # Number of instructions issued per FU type, per thread (Count)
system.cpu.statIssuedInstType_0::SimdReduceCmp            0      0.00%     50.67% # Number of instructions issued per FU type, per thread (Count)
system.cpu.statIssuedInstType_0::SimdFloatReduceAdd            0      0.00%     50.67% # Number of instructions issued per FU type, per thread (Count)
system.cpu.statIssuedInstType_0::SimdFloatReduceCmp            0      0.00%     50.67% # Number of instructions issued per FU type, per thread (Count)
system.cpu.statIssuedInstType_0::SimdAes            0      0.00%     50.67% # Number of instructions issued per FU type, per thread (Count)
system.cpu.statIssuedInstType_0::SimdAesMix            0      0.00%     50.67% # Number of instructions issued per FU type, per thread (Count)
system.cpu.statIssuedInstType_0::SimdSha1Hash            0      0.00%     50.67% # Number of instructions issued per FU type, per thread (Count)
system.cpu.statIssuedInstType_0::SimdSha1Hash2            0      0.00%     50.67% # Number of instructions issued per FU type, per thread (Count)
system.cpu.statIssuedInstType_0::SimdSha256Hash            0      0.00%     50.67% # Number of instructions issued per FU type, per thread (Count)
system.cpu.statIssuedInstType_0::SimdSha256Hash2            0      0.00%     50.67% # Number of instructions issued per FU type, per thread (Count)
system.cpu.statIssuedInstType_0::SimdShaSigma2            0      0.00%     50.67% # Number of instructions issued per FU type, per thread (Count)
system.cpu.statIssuedInstType_0::SimdShaSigma3            0      0.00%     50.67% # Number of instructions issued per FU type, per thread (Count)
system.cpu.statIssuedInstType_0::SimdPredAlu            0      0.00%     50.67% # Number of instructions issued per FU type, per thread (Count)
system.cpu.statIssuedInstType_0::MemRead    470854596     32.93%     83.60% # Number of instructions issued per FU type, per thread (Count)
system.cpu.statIssuedInstType_0::MemWrite    234542080     16.40%    100.00% # Number of instructions issued per FU type, per thread (Count)
system.cpu.statIssuedInstType_0::FloatMemRead            0      0.00%    100.00% # Number of instructions issued per FU type, per thread (Count)
system.cpu.statIssuedInstType_0::FloatMemWrite            0      0.00%    100.00% # Number of instructions issued per FU type, per thread (Count)
system.cpu.statIssuedInstType_0::IprAccess            0      0.00%    100.00% # Number of instructions issued per FU type, per thread (Count)
system.cpu.statIssuedInstType_0::InstPrefetch            0      0.00%    100.00% # Number of instructions issued per FU type, per thread (Count)
system.cpu.statIssuedInstType_0::total     1429948938                       # Number of instructions issued per FU type, per thread (Count)
system.cpu.issueRate                         2.226803                       # Inst issue rate ((Count/Cycle))
system.cpu.fuBusy                            47619933                       # FU busy when requested (Count)
system.cpu.fuBusyRate                        0.033302                       # FU busy rate (busy events/executed inst) ((Count/Count))
system.cpu.intInstQueueReads               3550963852                       # Number of integer instruction queue reads (Count)
system.cpu.intInstQueueWrites              2062352813                       # Number of integer instruction queue writes (Count)
system.cpu.intInstQueueWakeupAccesses      1360447666                       # Number of integer instruction queue wakeup accesses (Count)
system.cpu.fpInstQueueReads                         0                       # Number of floating instruction queue reads (Count)
system.cpu.fpInstQueueWrites                        0                       # Number of floating instruction queue writes (Count)
system.cpu.fpInstQueueWakeupAccesses                0                       # Number of floating instruction queue wakeup accesses (Count)
system.cpu.vecInstQueueReads                        0                       # Number of vector instruction queue reads (Count)
system.cpu.vecInstQueueWrites                       0                       # Number of vector instruction queue writes (Count)
system.cpu.vecInstQueueWakeupAccesses               0                       # Number of vector instruction queue wakeup accesses (Count)
system.cpu.intAluAccesses                  1477568869                       # Number of integer alu accesses (Count)
system.cpu.fpAluAccesses                            0                       # Number of floating point alu accesses (Count)
system.cpu.vecAluAccesses                           0                       # Number of vector alu accesses (Count)
system.cpu.numInsts                        1411745827                       # Number of executed instructions (Count)
system.cpu.numLoadInsts                     462354900                       # Number of load instructions executed (Count)
system.cpu.numSquashedInsts                  18203105                       # Number of squashed instructions skipped in execute (Count)
system.cpu.numSwp                                   0                       # Number of swp insts executed (Count)
system.cpu.numNop                                 299                       # Number of nop insts executed (Count)
system.cpu.numRefs                          693859018                       # Number of memory reference insts executed (Count)
system.cpu.numBranches                      177969247                       # Number of branches executed (Count)
system.cpu.numStoreInsts                    231504118                       # Number of stores executed (Count)
system.cpu.numRate                           2.198456                       # Inst execution rate ((Count/Cycle))
system.cpu.timesIdled                             186                       # Number of times that the entire CPU went into an idle state and unscheduled itself (Count)
system.cpu.idleCycles                            1774                       # Total number of cycles that the CPU has spent unscheduled due to idling (Cycle)
system.cpu.committedInsts                  1000000000                       # Number of Instructions Simulated (Count)
system.cpu.committedOps                    1160112256                       # Number of Ops (including micro ops) Simulated (Count)
system.cpu.cpi                               0.642153                       # CPI: Cycles Per Instruction ((Cycle/Count))
system.cpu.totalCpi                          0.642153                       # CPI: Total CPI of All Threads ((Cycle/Count))
system.cpu.ipc                               1.557260                       # IPC: Instructions Per Cycle ((Count/Cycle))
system.cpu.totalIpc                          1.557260                       # IPC: Total IPC of All Threads ((Count/Cycle))
system.cpu.intRegfileReads                 1783834203                       # Number of integer regfile reads (Count)
system.cpu.intRegfileWrites                 862388770                       # Number of integer regfile writes (Count)
system.cpu.vecRegfileReads                        183                       # number of vector regfile reads (Count)
system.cpu.vecRegfileWrites                       721                       # number of vector regfile writes (Count)
system.cpu.ccRegfileReads                  5492778272                       # number of cc regfile reads (Count)
system.cpu.ccRegfileWrites                  730708863                       # number of cc regfile writes (Count)
system.cpu.miscRegfileReads                 646093790                       # number of misc regfile reads (Count)
system.cpu.miscRegfileWrites                      158                       # number of misc regfile writes (Count)
system.cpu.MemDepUnit__0.insertedLoads      498296008                       # Number of loads inserted to the mem dependence unit. (Count)
system.cpu.MemDepUnit__0.insertedStores     274949819                       # Number of stores inserted to the mem dependence unit. (Count)
system.cpu.MemDepUnit__0.conflictingLoads    152965627                       # Number of conflicting loads. (Count)
system.cpu.MemDepUnit__0.conflictingStores    107407925                       # Number of conflicting stores. (Count)
system.cpu.MemDepUnit__1.insertedLoads              0                       # Number of loads inserted to the mem dependence unit. (Count)
system.cpu.MemDepUnit__1.insertedStores             0                       # Number of stores inserted to the mem dependence unit. (Count)
system.cpu.MemDepUnit__1.conflictingLoads            0                       # Number of conflicting loads. (Count)
system.cpu.MemDepUnit__1.conflictingStores            0                       # Number of conflicting stores. (Count)
system.cpu.MemDepUnit__2.insertedLoads              0                       # Number of loads inserted to the mem dependence unit. (Count)
system.cpu.MemDepUnit__2.insertedStores             0                       # Number of stores inserted to the mem dependence unit. (Count)
system.cpu.MemDepUnit__2.conflictingLoads            0                       # Number of conflicting loads. (Count)
system.cpu.MemDepUnit__2.conflictingStores            0                       # Number of conflicting stores. (Count)
system.cpu.MemDepUnit__3.insertedLoads              0                       # Number of loads inserted to the mem dependence unit. (Count)
system.cpu.MemDepUnit__3.insertedStores             0                       # Number of stores inserted to the mem dependence unit. (Count)
system.cpu.MemDepUnit__3.conflictingLoads            0                       # Number of conflicting loads. (Count)
system.cpu.MemDepUnit__3.conflictingStores            0                       # Number of conflicting stores. (Count)
system.cpu.branchPred.lookups               248269966                       # Number of BP lookups (Count)
system.cpu.branchPred.condPredicted         205452965                       # Number of conditional branches predicted (Count)
system.cpu.branchPred.condIncorrect          10898506                       # Number of conditional branches incorrect (Count)
system.cpu.branchPred.BTBLookups            138248727                       # Number of BTB lookups (Count)
system.cpu.branchPred.BTBHits               138135986                       # Number of BTB hits (Count)
system.cpu.branchPred.BTBHitRatio            0.999185                       # BTB Hit Ratio (Ratio)
system.cpu.branchPred.RASUsed                 9376064                       # Number of times the RAS was used to get a target. (Count)
system.cpu.branchPred.RASIncorrect                  8                       # Number of incorrect RAS predictions. (Count)
system.cpu.branchPred.indirectLookups            2394                       # Number of indirect predictor lookups. (Count)
system.cpu.branchPred.indirectHits               2076                       # Number of indirect target hits. (Count)
system.cpu.branchPred.indirectMisses              318                       # Number of indirect misses. (Count)
system.cpu.branchPred.indirectMispredicted           95                       # Number of mispredicted indirect branches. (Count)
system.cpu.commit.commitSquashedInsts       448303793                       # The number of squashed insts skipped by commit (Count)
system.cpu.commit.commitNonSpecStalls             539                       # The number of times commit has been forced to stall to communicate backwards (Count)
system.cpu.commit.branchMispredicts          10158957                       # The number of times a branch was mispredicted (Count)
system.cpu.commit.numCommittedDist::samples    580754479                       # Number of insts commited each cycle (Count)
system.cpu.commit.numCommittedDist::mean     1.997595                       # Number of insts commited each cycle (Count)
system.cpu.commit.numCommittedDist::stdev     2.575153                       # Number of insts commited each cycle (Count)
system.cpu.commit.numCommittedDist::underflows            0      0.00%      0.00% # Number of insts commited each cycle (Count)
system.cpu.commit.numCommittedDist::0       237769662     40.94%     40.94% # Number of insts commited each cycle (Count)
system.cpu.commit.numCommittedDist::1       122863292     21.16%     62.10% # Number of insts commited each cycle (Count)
system.cpu.commit.numCommittedDist::2        51854806      8.93%     71.03% # Number of insts commited each cycle (Count)
system.cpu.commit.numCommittedDist::3        36430109      6.27%     77.30% # Number of insts commited each cycle (Count)
system.cpu.commit.numCommittedDist::4        32851283      5.66%     82.96% # Number of insts commited each cycle (Count)
system.cpu.commit.numCommittedDist::5        17323668      2.98%     85.94% # Number of insts commited each cycle (Count)
system.cpu.commit.numCommittedDist::6        15728931      2.71%     88.65% # Number of insts commited each cycle (Count)
system.cpu.commit.numCommittedDist::7        15609664      2.69%     91.33% # Number of insts commited each cycle (Count)
system.cpu.commit.numCommittedDist::8        50323064      8.67%    100.00% # Number of insts commited each cycle (Count)
system.cpu.commit.numCommittedDist::overflows            0      0.00%    100.00% # Number of insts commited each cycle (Count)
system.cpu.commit.numCommittedDist::min_value            0                       # Number of insts commited each cycle (Count)
system.cpu.commit.numCommittedDist::max_value            8                       # Number of insts commited each cycle (Count)
system.cpu.commit.numCommittedDist::total    580754479                       # Number of insts commited each cycle (Count)
system.cpu.commit.instsCommitted           1000000193                       # Number of instructions committed (Count)
system.cpu.commit.opsCommitted             1160112449                       # Number of ops (including micro ops) committed (Count)
system.cpu.commit.memRefs                   581891603                       # Number of memory references committed (Count)
system.cpu.commit.loads                     366711315                       # Number of loads committed (Count)
system.cpu.commit.amos                              0                       # Number of atomic instructions committed (Count)
system.cpu.commit.membars                          79                       # Number of memory barriers committed (Count)
system.cpu.commit.branches                  142882388                       # Number of branches committed (Count)
system.cpu.commit.vectorInstructions                0                       # Number of committed Vector instructions. (Count)
system.cpu.commit.floating                          0                       # Number of committed floating point instructions. (Count)
system.cpu.commit.integer                  1016066420                       # Number of committed integer instructions. (Count)
system.cpu.commit.functionCalls               4825530                       # Number of function calls committed. (Count)
system.cpu.commit.committedInstType_0::No_OpClass            0      0.00%      0.00% # Class of committed instruction (Count)
system.cpu.commit.committedInstType_0::IntAlu    578220034     49.84%     49.84% # Class of committed instruction (Count)
system.cpu.commit.committedInstType_0::IntMult          809      0.00%     49.84% # Class of committed instruction (Count)
system.cpu.commit.committedInstType_0::IntDiv            0      0.00%     49.84% # Class of committed instruction (Count)
system.cpu.commit.committedInstType_0::FloatAdd            0      0.00%     49.84% # Class of committed instruction (Count)
system.cpu.commit.committedInstType_0::FloatCmp            0      0.00%     49.84% # Class of committed instruction (Count)
system.cpu.commit.committedInstType_0::FloatCvt            0      0.00%     49.84% # Class of committed instruction (Count)
system.cpu.commit.committedInstType_0::FloatMult            0      0.00%     49.84% # Class of committed instruction (Count)
system.cpu.commit.committedInstType_0::FloatMultAcc            0      0.00%     49.84% # Class of committed instruction (Count)
system.cpu.commit.committedInstType_0::FloatDiv            0      0.00%     49.84% # Class of committed instruction (Count)
system.cpu.commit.committedInstType_0::FloatMisc            0      0.00%     49.84% # Class of committed instruction (Count)
system.cpu.commit.committedInstType_0::FloatSqrt            0      0.00%     49.84% # Class of committed instruction (Count)
system.cpu.commit.committedInstType_0::SimdAdd            0      0.00%     49.84% # Class of committed instruction (Count)
system.cpu.commit.committedInstType_0::SimdAddAcc            0      0.00%     49.84% # Class of committed instruction (Count)
system.cpu.commit.committedInstType_0::SimdAlu            0      0.00%     49.84% # Class of committed instruction (Count)
system.cpu.commit.committedInstType_0::SimdCmp            0      0.00%     49.84% # Class of committed instruction (Count)
system.cpu.commit.committedInstType_0::SimdCvt            0      0.00%     49.84% # Class of committed instruction (Count)
system.cpu.commit.committedInstType_0::SimdMisc            0      0.00%     49.84% # Class of committed instruction (Count)
system.cpu.commit.committedInstType_0::SimdMult            0      0.00%     49.84% # Class of committed instruction (Count)
system.cpu.commit.committedInstType_0::SimdMultAcc            0      0.00%     49.84% # Class of committed instruction (Count)
system.cpu.commit.committedInstType_0::SimdShift            0      0.00%     49.84% # Class of committed instruction (Count)
system.cpu.commit.committedInstType_0::SimdShiftAcc            0      0.00%     49.84% # Class of committed instruction (Count)
system.cpu.commit.committedInstType_0::SimdDiv            0      0.00%     49.84% # Class of committed instruction (Count)
system.cpu.commit.committedInstType_0::SimdSqrt            0      0.00%     49.84% # Class of committed instruction (Count)
system.cpu.commit.committedInstType_0::SimdFloatAdd            0      0.00%     49.84% # Class of committed instruction (Count)
system.cpu.commit.committedInstType_0::SimdFloatAlu            0      0.00%     49.84% # Class of committed instruction (Count)
system.cpu.commit.committedInstType_0::SimdFloatCmp            0      0.00%     49.84% # Class of committed instruction (Count)
system.cpu.commit.committedInstType_0::SimdFloatCvt            0      0.00%     49.84% # Class of committed instruction (Count)
system.cpu.commit.committedInstType_0::SimdFloatDiv            0      0.00%     49.84% # Class of committed instruction (Count)
system.cpu.commit.committedInstType_0::SimdFloatMisc            3      0.00%     49.84% # Class of committed instruction (Count)
system.cpu.commit.committedInstType_0::SimdFloatMult            0      0.00%     49.84% # Class of committed instruction (Count)
system.cpu.commit.committedInstType_0::SimdFloatMultAcc            0      0.00%     49.84% # Class of committed instruction (Count)
system.cpu.commit.committedInstType_0::SimdFloatSqrt            0      0.00%     49.84% # Class of committed instruction (Count)
system.cpu.commit.committedInstType_0::SimdReduceAdd            0      0.00%     49.84% # Class of committed instruction (Count)
system.cpu.commit.committedInstType_0::SimdReduceAlu            0      0.00%     49.84% # Class of committed instruction (Count)
system.cpu.commit.committedInstType_0::SimdReduceCmp            0      0.00%     49.84% # Class of committed instruction (Count)
system.cpu.commit.committedInstType_0::SimdFloatReduceAdd            0      0.00%     49.84% # Class of committed instruction (Count)
system.cpu.commit.committedInstType_0::SimdFloatReduceCmp            0      0.00%     49.84% # Class of committed instruction (Count)
system.cpu.commit.committedInstType_0::SimdAes            0      0.00%     49.84% # Class of committed instruction (Count)
system.cpu.commit.committedInstType_0::SimdAesMix            0      0.00%     49.84% # Class of committed instruction (Count)
system.cpu.commit.committedInstType_0::SimdSha1Hash            0      0.00%     49.84% # Class of committed instruction (Count)
system.cpu.commit.committedInstType_0::SimdSha1Hash2            0      0.00%     49.84% # Class of committed instruction (Count)
system.cpu.commit.committedInstType_0::SimdSha256Hash            0      0.00%     49.84% # Class of committed instruction (Count)
system.cpu.commit.committedInstType_0::SimdSha256Hash2            0      0.00%     49.84% # Class of committed instruction (Count)
system.cpu.commit.committedInstType_0::SimdShaSigma2            0      0.00%     49.84% # Class of committed instruction (Count)
system.cpu.commit.committedInstType_0::SimdShaSigma3            0      0.00%     49.84% # Class of committed instruction (Count)
system.cpu.commit.committedInstType_0::SimdPredAlu            0      0.00%     49.84% # Class of committed instruction (Count)
system.cpu.commit.committedInstType_0::MemRead    366711315     31.61%     81.45% # Class of committed instruction (Count)
system.cpu.commit.committedInstType_0::MemWrite    215180288     18.55%    100.00% # Class of committed instruction (Count)
system.cpu.commit.committedInstType_0::FloatMemRead            0      0.00%    100.00% # Class of committed instruction (Count)
system.cpu.commit.committedInstType_0::FloatMemWrite            0      0.00%    100.00% # Class of committed instruction (Count)
system.cpu.commit.committedInstType_0::IprAccess            0      0.00%    100.00% # Class of committed instruction (Count)
system.cpu.commit.committedInstType_0::InstPrefetch            0      0.00%    100.00% # Class of committed instruction (Count)
system.cpu.commit.committedInstType_0::total   1160112449                       # Class of committed instruction (Count)
system.cpu.commit.commitEligibleSamples      50323064                       # number cycles where commit BW limit reached (Cycle)
system.cpu.dcache.demandHits::cpu.data      514358912                       # number of demand (read+write) hits (Count)
system.cpu.dcache.demandHits::total         514358912                       # number of demand (read+write) hits (Count)
system.cpu.dcache.overallHits::cpu.data     514413771                       # number of overall hits (Count)
system.cpu.dcache.overallHits::total        514413771                       # number of overall hits (Count)
system.cpu.dcache.demandMisses::cpu.data     81949586                       # number of demand (read+write) misses (Count)
system.cpu.dcache.demandMisses::total        81949586                       # number of demand (read+write) misses (Count)
system.cpu.dcache.overallMisses::cpu.data     89566057                       # number of overall misses (Count)
system.cpu.dcache.overallMisses::total       89566057                       # number of overall misses (Count)
system.cpu.dcache.demandMissLatency::cpu.data 4502952101455                       # number of demand (read+write) miss ticks (Tick)
system.cpu.dcache.demandMissLatency::total 4502952101455                       # number of demand (read+write) miss ticks (Tick)
system.cpu.dcache.overallMissLatency::cpu.data 4502952101455                       # number of overall miss ticks (Tick)
system.cpu.dcache.overallMissLatency::total 4502952101455                       # number of overall miss ticks (Tick)
system.cpu.dcache.demandAccesses::cpu.data    596308498                       # number of demand (read+write) accesses (Count)
system.cpu.dcache.demandAccesses::total     596308498                       # number of demand (read+write) accesses (Count)
system.cpu.dcache.overallAccesses::cpu.data    603979828                       # number of overall (read+write) accesses (Count)
system.cpu.dcache.overallAccesses::total    603979828                       # number of overall (read+write) accesses (Count)
system.cpu.dcache.demandMissRate::cpu.data     0.137428                       # miss rate for demand accesses (Ratio)
system.cpu.dcache.demandMissRate::total      0.137428                       # miss rate for demand accesses (Ratio)
system.cpu.dcache.overallMissRate::cpu.data     0.148293                       # miss rate for overall accesses (Ratio)
system.cpu.dcache.overallMissRate::total     0.148293                       # miss rate for overall accesses (Ratio)
system.cpu.dcache.demandAvgMissLatency::cpu.data 54947.832213                       # average overall miss latency in ticks ((Tick/Count))
system.cpu.dcache.demandAvgMissLatency::total 54947.832213                       # average overall miss latency in ticks ((Tick/Count))
system.cpu.dcache.overallAvgMissLatency::cpu.data 50275.207509                       # average overall miss latency ((Tick/Count))
system.cpu.dcache.overallAvgMissLatency::total 50275.207509                       # average overall miss latency ((Tick/Count))
system.cpu.dcache.blockedCycles::no_mshrs     29911853                       # number of cycles access was blocked (Cycle)
system.cpu.dcache.blockedCycles::no_targets          407                       # number of cycles access was blocked (Cycle)
system.cpu.dcache.blockedCauses::no_mshrs      2954092                       # number of times access was blocked (Count)
system.cpu.dcache.blockedCauses::no_targets           57                       # number of times access was blocked (Count)
system.cpu.dcache.avgBlocked::no_mshrs      10.125566                       # average number of cycles each access was blocked ((Cycle/Count))
system.cpu.dcache.avgBlocked::no_targets     7.140351                       # average number of cycles each access was blocked ((Cycle/Count))
system.cpu.dcache.writebacks::writebacks     10700574                       # number of writebacks (Count)
system.cpu.dcache.writebacks::total          10700574                       # number of writebacks (Count)
system.cpu.dcache.demandMshrHits::cpu.data     63377046                       # number of demand (read+write) MSHR hits (Count)
system.cpu.dcache.demandMshrHits::total      63377046                       # number of demand (read+write) MSHR hits (Count)
system.cpu.dcache.overallMshrHits::cpu.data     63377046                       # number of overall MSHR hits (Count)
system.cpu.dcache.overallMshrHits::total     63377046                       # number of overall MSHR hits (Count)
system.cpu.dcache.demandMshrMisses::cpu.data     18572540                       # number of demand (read+write) MSHR misses (Count)
system.cpu.dcache.demandMshrMisses::total     18572540                       # number of demand (read+write) MSHR misses (Count)
system.cpu.dcache.overallMshrMisses::cpu.data     22401228                       # number of overall MSHR misses (Count)
system.cpu.dcache.overallMshrMisses::total     22401228                       # number of overall MSHR misses (Count)
system.cpu.dcache.demandMshrMissLatency::cpu.data 736898730454                       # number of demand (read+write) MSHR miss ticks (Tick)
system.cpu.dcache.demandMshrMissLatency::total 736898730454                       # number of demand (read+write) MSHR miss ticks (Tick)
system.cpu.dcache.overallMshrMissLatency::cpu.data 1058398985895                       # number of overall MSHR miss ticks (Tick)
system.cpu.dcache.overallMshrMissLatency::total 1058398985895                       # number of overall MSHR miss ticks (Tick)
system.cpu.dcache.demandMshrMissRate::cpu.data     0.031146                       # mshr miss ratio for demand accesses (Ratio)
system.cpu.dcache.demandMshrMissRate::total     0.031146                       # mshr miss ratio for demand accesses (Ratio)
system.cpu.dcache.overallMshrMissRate::cpu.data     0.037089                       # mshr miss ratio for overall accesses (Ratio)
system.cpu.dcache.overallMshrMissRate::total     0.037089                       # mshr miss ratio for overall accesses (Ratio)
system.cpu.dcache.demandAvgMshrMissLatency::cpu.data 39676.787906                       # average overall mshr miss latency ((Tick/Count))
system.cpu.dcache.demandAvgMshrMissLatency::total 39676.787906                       # average overall mshr miss latency ((Tick/Count))
system.cpu.dcache.overallAvgMshrMissLatency::cpu.data 47247.364559                       # average overall mshr miss latency ((Tick/Count))
system.cpu.dcache.overallAvgMshrMissLatency::total 47247.364559                       # average overall mshr miss latency ((Tick/Count))
system.cpu.dcache.replacements               22400718                       # number of replacements (Count)
system.cpu.dcache.LoadLockedReq.hits::cpu.data           37                       # number of LoadLockedReq hits (Count)
system.cpu.dcache.LoadLockedReq.hits::total           37                       # number of LoadLockedReq hits (Count)
system.cpu.dcache.LoadLockedReq.misses::cpu.data            2                       # number of LoadLockedReq misses (Count)
system.cpu.dcache.LoadLockedReq.misses::total            2                       # number of LoadLockedReq misses (Count)
system.cpu.dcache.LoadLockedReq.missLatency::cpu.data       159984                       # number of LoadLockedReq miss ticks (Tick)
system.cpu.dcache.LoadLockedReq.missLatency::total       159984                       # number of LoadLockedReq miss ticks (Tick)
system.cpu.dcache.LoadLockedReq.accesses::cpu.data           39                       # number of LoadLockedReq accesses(hits+misses) (Count)
system.cpu.dcache.LoadLockedReq.accesses::total           39                       # number of LoadLockedReq accesses(hits+misses) (Count)
system.cpu.dcache.LoadLockedReq.missRate::cpu.data     0.051282                       # miss rate for LoadLockedReq accesses (Ratio)
system.cpu.dcache.LoadLockedReq.missRate::total     0.051282                       # miss rate for LoadLockedReq accesses (Ratio)
system.cpu.dcache.LoadLockedReq.avgMissLatency::cpu.data        79992                       # average LoadLockedReq miss latency ((Tick/Count))
system.cpu.dcache.LoadLockedReq.avgMissLatency::total        79992                       # average LoadLockedReq miss latency ((Tick/Count))
system.cpu.dcache.LoadLockedReq.mshrMisses::cpu.data            2                       # number of LoadLockedReq MSHR misses (Count)
system.cpu.dcache.LoadLockedReq.mshrMisses::total            2                       # number of LoadLockedReq MSHR misses (Count)
system.cpu.dcache.LoadLockedReq.mshrMissLatency::cpu.data       141686                       # number of LoadLockedReq MSHR miss ticks (Tick)
system.cpu.dcache.LoadLockedReq.mshrMissLatency::total       141686                       # number of LoadLockedReq MSHR miss ticks (Tick)
system.cpu.dcache.LoadLockedReq.mshrMissRate::cpu.data     0.051282                       # mshr miss rate for LoadLockedReq accesses (Ratio)
system.cpu.dcache.LoadLockedReq.mshrMissRate::total     0.051282                       # mshr miss rate for LoadLockedReq accesses (Ratio)
system.cpu.dcache.LoadLockedReq.avgMshrMissLatency::cpu.data        70843                       # average LoadLockedReq mshr miss latency ((Tick/Count))
system.cpu.dcache.LoadLockedReq.avgMshrMissLatency::total        70843                       # average LoadLockedReq mshr miss latency ((Tick/Count))
system.cpu.dcache.ReadReq.hits::cpu.data    365953350                       # number of ReadReq hits (Count)
system.cpu.dcache.ReadReq.hits::total       365953350                       # number of ReadReq hits (Count)
system.cpu.dcache.ReadReq.misses::cpu.data     17104857                       # number of ReadReq misses (Count)
system.cpu.dcache.ReadReq.misses::total      17104857                       # number of ReadReq misses (Count)
system.cpu.dcache.ReadReq.missLatency::cpu.data 514608824440                       # number of ReadReq miss ticks (Tick)
system.cpu.dcache.ReadReq.missLatency::total 514608824440                       # number of ReadReq miss ticks (Tick)
system.cpu.dcache.ReadReq.accesses::cpu.data    383058207                       # number of ReadReq accesses(hits+misses) (Count)
system.cpu.dcache.ReadReq.accesses::total    383058207                       # number of ReadReq accesses(hits+misses) (Count)
system.cpu.dcache.ReadReq.missRate::cpu.data     0.044653                       # miss rate for ReadReq accesses (Ratio)
system.cpu.dcache.ReadReq.missRate::total     0.044653                       # miss rate for ReadReq accesses (Ratio)
system.cpu.dcache.ReadReq.avgMissLatency::cpu.data 30085.537952                       # average ReadReq miss latency ((Tick/Count))
system.cpu.dcache.ReadReq.avgMissLatency::total 30085.537952                       # average ReadReq miss latency ((Tick/Count))
system.cpu.dcache.ReadReq.mshrHits::cpu.data      6095968                       # number of ReadReq MSHR hits (Count)
system.cpu.dcache.ReadReq.mshrHits::total      6095968                       # number of ReadReq MSHR hits (Count)
system.cpu.dcache.ReadReq.mshrMisses::cpu.data     11008889                       # number of ReadReq MSHR misses (Count)
system.cpu.dcache.ReadReq.mshrMisses::total     11008889                       # number of ReadReq MSHR misses (Count)
system.cpu.dcache.ReadReq.mshrMissLatency::cpu.data 245740846150                       # number of ReadReq MSHR miss ticks (Tick)
system.cpu.dcache.ReadReq.mshrMissLatency::total 245740846150                       # number of ReadReq MSHR miss ticks (Tick)
system.cpu.dcache.ReadReq.mshrMissRate::cpu.data     0.028739                       # mshr miss rate for ReadReq accesses (Ratio)
system.cpu.dcache.ReadReq.mshrMissRate::total     0.028739                       # mshr miss rate for ReadReq accesses (Ratio)
system.cpu.dcache.ReadReq.avgMshrMissLatency::cpu.data 22322.038686                       # average ReadReq mshr miss latency ((Tick/Count))
system.cpu.dcache.ReadReq.avgMshrMissLatency::total 22322.038686                       # average ReadReq mshr miss latency ((Tick/Count))
system.cpu.dcache.SoftPFReq.hits::cpu.data        54859                       # number of SoftPFReq hits (Count)
system.cpu.dcache.SoftPFReq.hits::total         54859                       # number of SoftPFReq hits (Count)
system.cpu.dcache.SoftPFReq.misses::cpu.data      7616471                       # number of SoftPFReq misses (Count)
system.cpu.dcache.SoftPFReq.misses::total      7616471                       # number of SoftPFReq misses (Count)
system.cpu.dcache.SoftPFReq.accesses::cpu.data      7671330                       # number of SoftPFReq accesses(hits+misses) (Count)
system.cpu.dcache.SoftPFReq.accesses::total      7671330                       # number of SoftPFReq accesses(hits+misses) (Count)
system.cpu.dcache.SoftPFReq.missRate::cpu.data     0.992849                       # miss rate for SoftPFReq accesses (Ratio)
system.cpu.dcache.SoftPFReq.missRate::total     0.992849                       # miss rate for SoftPFReq accesses (Ratio)
system.cpu.dcache.SoftPFReq.mshrMisses::cpu.data      3828688                       # number of SoftPFReq MSHR misses (Count)
system.cpu.dcache.SoftPFReq.mshrMisses::total      3828688                       # number of SoftPFReq MSHR misses (Count)
system.cpu.dcache.SoftPFReq.mshrMissLatency::cpu.data 321500255441                       # number of SoftPFReq MSHR miss ticks (Tick)
system.cpu.dcache.SoftPFReq.mshrMissLatency::total 321500255441                       # number of SoftPFReq MSHR miss ticks (Tick)
system.cpu.dcache.SoftPFReq.mshrMissRate::cpu.data     0.499091                       # mshr miss rate for SoftPFReq accesses (Ratio)
system.cpu.dcache.SoftPFReq.mshrMissRate::total     0.499091                       # mshr miss rate for SoftPFReq accesses (Ratio)
system.cpu.dcache.SoftPFReq.avgMshrMissLatency::cpu.data 83971.390576                       # average SoftPFReq mshr miss latency ((Tick/Count))
system.cpu.dcache.SoftPFReq.avgMshrMissLatency::total 83971.390576                       # average SoftPFReq mshr miss latency ((Tick/Count))
system.cpu.dcache.StoreCondReq.hits::cpu.data           39                       # number of StoreCondReq hits (Count)
system.cpu.dcache.StoreCondReq.hits::total           39                       # number of StoreCondReq hits (Count)
system.cpu.dcache.StoreCondReq.accesses::cpu.data           39                       # number of StoreCondReq accesses(hits+misses) (Count)
system.cpu.dcache.StoreCondReq.accesses::total           39                       # number of StoreCondReq accesses(hits+misses) (Count)
system.cpu.dcache.WriteReq.hits::cpu.data    148405562                       # number of WriteReq hits (Count)
system.cpu.dcache.WriteReq.hits::total      148405562                       # number of WriteReq hits (Count)
system.cpu.dcache.WriteReq.misses::cpu.data     64844729                       # number of WriteReq misses (Count)
system.cpu.dcache.WriteReq.misses::total     64844729                       # number of WriteReq misses (Count)
system.cpu.dcache.WriteReq.missLatency::cpu.data 3988343277015                       # number of WriteReq miss ticks (Tick)
system.cpu.dcache.WriteReq.missLatency::total 3988343277015                       # number of WriteReq miss ticks (Tick)
system.cpu.dcache.WriteReq.accesses::cpu.data    213250291                       # number of WriteReq accesses(hits+misses) (Count)
system.cpu.dcache.WriteReq.accesses::total    213250291                       # number of WriteReq accesses(hits+misses) (Count)
system.cpu.dcache.WriteReq.missRate::cpu.data     0.304078                       # miss rate for WriteReq accesses (Ratio)
system.cpu.dcache.WriteReq.missRate::total     0.304078                       # miss rate for WriteReq accesses (Ratio)
system.cpu.dcache.WriteReq.avgMissLatency::cpu.data 61506.052050                       # average WriteReq miss latency ((Tick/Count))
system.cpu.dcache.WriteReq.avgMissLatency::total 61506.052050                       # average WriteReq miss latency ((Tick/Count))
system.cpu.dcache.WriteReq.mshrHits::cpu.data     57281078                       # number of WriteReq MSHR hits (Count)
system.cpu.dcache.WriteReq.mshrHits::total     57281078                       # number of WriteReq MSHR hits (Count)
system.cpu.dcache.WriteReq.mshrMisses::cpu.data      7563651                       # number of WriteReq MSHR misses (Count)
system.cpu.dcache.WriteReq.mshrMisses::total      7563651                       # number of WriteReq MSHR misses (Count)
system.cpu.dcache.WriteReq.mshrMissLatency::cpu.data 491157884304                       # number of WriteReq MSHR miss ticks (Tick)
system.cpu.dcache.WriteReq.mshrMissLatency::total 491157884304                       # number of WriteReq MSHR miss ticks (Tick)
system.cpu.dcache.WriteReq.mshrMissRate::cpu.data     0.035468                       # mshr miss rate for WriteReq accesses (Ratio)
system.cpu.dcache.WriteReq.mshrMissRate::total     0.035468                       # mshr miss rate for WriteReq accesses (Ratio)
system.cpu.dcache.WriteReq.avgMshrMissLatency::cpu.data 64936.613853                       # average WriteReq mshr miss latency ((Tick/Count))
system.cpu.dcache.WriteReq.avgMshrMissLatency::total 64936.613853                       # average WriteReq mshr miss latency ((Tick/Count))
system.cpu.dcache.power_state.pwrStateResidencyTicks::UNDEFINED 2140297288866                       # Cumulative time (in ticks) in various power states (Tick)
system.cpu.dcache.tags.tagsInUse           502.750220                       # Average ticks per tags in use ((Tick/Count))
system.cpu.dcache.tags.totalRefs            536815077                       # Total number of references to valid blocks. (Count)
system.cpu.dcache.tags.sampledRefs           22401230                       # Sample count of references to valid blocks. (Count)
system.cpu.dcache.tags.avgRefs              23.963643                       # Average number of references to valid blocks. ((Count/Count))
system.cpu.dcache.tags.warmupTick              174500                       # The tick when the warmup percentage was hit. (Tick)
system.cpu.dcache.tags.occupancies::cpu.data   502.750220                       # Average occupied blocks per tick, per requestor ((Count/Tick))
system.cpu.dcache.tags.avgOccs::cpu.data     0.981934                       # Average percentage of cache occupancy ((Ratio/Tick))
system.cpu.dcache.tags.avgOccs::total        0.981934                       # Average percentage of cache occupancy ((Ratio/Tick))
system.cpu.dcache.tags.occupanciesTaskId::1024          512                       # Occupied blocks per task id (Count)
system.cpu.dcache.tags.ageTaskId_1024::0           17                       # Occupied blocks per task id, per block age (Count)
system.cpu.dcache.tags.ageTaskId_1024::1          322                       # Occupied blocks per task id, per block age (Count)
system.cpu.dcache.tags.ageTaskId_1024::2          172                       # Occupied blocks per task id, per block age (Count)
system.cpu.dcache.tags.ageTaskId_1024::3            1                       # Occupied blocks per task id, per block age (Count)
system.cpu.dcache.tags.ratioOccsTaskId::1024            1                       # Ratio of occupied blocks and all blocks, per task id (Ratio)
system.cpu.dcache.tags.tagAccesses         2438320854                       # Number of tag accesses (Count)
system.cpu.dcache.tags.dataAccesses        2438320854                       # Number of data accesses (Count)
system.cpu.dcache.tags.power_state.pwrStateResidencyTicks::UNDEFINED 2140297288866                       # Cumulative time (in ticks) in various power states (Tick)
system.cpu.decode.idleCycles                128000655                       # Number of cycles decode is idle (Cycle)
system.cpu.decode.blockedCycles             231179039                       # Number of cycles decode is blocked (Cycle)
system.cpu.decode.runCycles                 219099156                       # Number of cycles decode is running (Cycle)
system.cpu.decode.unblockCycles              53279053                       # Number of cycles decode is unblocking (Cycle)
system.cpu.decode.squashCycles               10593726                       # Number of cycles decode is squashing (Cycle)
system.cpu.decode.branchResolved            127966680                       # Number of times decode resolved a branch (Count)
system.cpu.decode.branchMispred                762118                       # Number of times decode detected a branch misprediction (Count)
system.cpu.decode.decodedInsts             1728697390                       # Number of instructions handled by decode (Count)
system.cpu.decode.squashedInsts               2543208                       # Number of squashed instructions handled by decode (Count)
system.cpu.fetch.icacheStallCycles          168457957                       # Number of cycles fetch is stalled on an Icache miss (Cycle)
system.cpu.fetch.insts                     1610596361                       # Number of instructions fetch has processed (Count)
system.cpu.fetch.branches                   248269966                       # Number of branches that fetch encountered (Count)
system.cpu.fetch.predictedBranches          147514126                       # Number of branches that fetch has predicted taken (Count)
system.cpu.fetch.cycles                     462360383                       # Number of cycles fetch has run and was not squashing or blocked (Cycle)
system.cpu.fetch.squashCycles                22666552                       # Number of cycles fetch has spent squashing (Cycle)
system.cpu.fetch.miscStallCycles                    1                       # Number of cycles fetch has spent waiting on interrupts, or bad addresses, or out of MSHRs (Cycle)
system.cpu.fetch.pendingTrapStallCycles            12                       # Number of stall cycles due to pending traps (Cycle)
system.cpu.fetch.cacheLines                 162681034                       # Number of cache lines fetched (Count)
system.cpu.fetch.icacheSquashes               3293166                       # Number of outstanding Icache misses that were squashed (Count)
system.cpu.fetch.nisnDist::samples          642151629                       # Number of instructions fetched each cycle (Total) (Count)
system.cpu.fetch.nisnDist::mean              2.853009                       # Number of instructions fetched each cycle (Total) (Count)
system.cpu.fetch.nisnDist::stdev             3.255317                       # Number of instructions fetched each cycle (Total) (Count)
system.cpu.fetch.nisnDist::underflows               0      0.00%      0.00% # Number of instructions fetched each cycle (Total) (Count)
system.cpu.fetch.nisnDist::0                310076367     48.29%     48.29% # Number of instructions fetched each cycle (Total) (Count)
system.cpu.fetch.nisnDist::1                 21760201      3.39%     51.68% # Number of instructions fetched each cycle (Total) (Count)
system.cpu.fetch.nisnDist::2                 35362386      5.51%     57.18% # Number of instructions fetched each cycle (Total) (Count)
system.cpu.fetch.nisnDist::3                 21252790      3.31%     60.49% # Number of instructions fetched each cycle (Total) (Count)
system.cpu.fetch.nisnDist::4                 39401098      6.14%     66.63% # Number of instructions fetched each cycle (Total) (Count)
system.cpu.fetch.nisnDist::5                 35694048      5.56%     72.19% # Number of instructions fetched each cycle (Total) (Count)
system.cpu.fetch.nisnDist::6                 30123646      4.69%     76.88% # Number of instructions fetched each cycle (Total) (Count)
system.cpu.fetch.nisnDist::7                 28843957      4.49%     81.37% # Number of instructions fetched each cycle (Total) (Count)
system.cpu.fetch.nisnDist::8                119637136     18.63%    100.00% # Number of instructions fetched each cycle (Total) (Count)
system.cpu.fetch.nisnDist::overflows                0      0.00%    100.00% # Number of instructions fetched each cycle (Total) (Count)
system.cpu.fetch.nisnDist::min_value                0                       # Number of instructions fetched each cycle (Total) (Count)
system.cpu.fetch.nisnDist::max_value                8                       # Number of instructions fetched each cycle (Total) (Count)
system.cpu.fetch.nisnDist::total            642151629                       # Number of instructions fetched each cycle (Total) (Count)
system.cpu.fetch.branchRate                  0.386621                       # Number of branch fetches per cycle (Ratio)
system.cpu.fetch.rate                        2.508118                       # Number of inst fetches per cycle ((Count/Cycle))
system.cpu.icache.demandHits::cpu.inst      162680078                       # number of demand (read+write) hits (Count)
system.cpu.icache.demandHits::total         162680078                       # number of demand (read+write) hits (Count)
system.cpu.icache.overallHits::cpu.inst     162680078                       # number of overall hits (Count)
system.cpu.icache.overallHits::total        162680078                       # number of overall hits (Count)
system.cpu.icache.demandMisses::cpu.inst          956                       # number of demand (read+write) misses (Count)
system.cpu.icache.demandMisses::total             956                       # number of demand (read+write) misses (Count)
system.cpu.icache.overallMisses::cpu.inst          956                       # number of overall misses (Count)
system.cpu.icache.overallMisses::total            956                       # number of overall misses (Count)
system.cpu.icache.demandMissLatency::cpu.inst     78785454                       # number of demand (read+write) miss ticks (Tick)
system.cpu.icache.demandMissLatency::total     78785454                       # number of demand (read+write) miss ticks (Tick)
system.cpu.icache.overallMissLatency::cpu.inst     78785454                       # number of overall miss ticks (Tick)
system.cpu.icache.overallMissLatency::total     78785454                       # number of overall miss ticks (Tick)
system.cpu.icache.demandAccesses::cpu.inst    162681034                       # number of demand (read+write) accesses (Count)
system.cpu.icache.demandAccesses::total     162681034                       # number of demand (read+write) accesses (Count)
system.cpu.icache.overallAccesses::cpu.inst    162681034                       # number of overall (read+write) accesses (Count)
system.cpu.icache.overallAccesses::total    162681034                       # number of overall (read+write) accesses (Count)
system.cpu.icache.demandMissRate::cpu.inst     0.000006                       # miss rate for demand accesses (Ratio)
system.cpu.icache.demandMissRate::total      0.000006                       # miss rate for demand accesses (Ratio)
system.cpu.icache.overallMissRate::cpu.inst     0.000006                       # miss rate for overall accesses (Ratio)
system.cpu.icache.overallMissRate::total     0.000006                       # miss rate for overall accesses (Ratio)
system.cpu.icache.demandAvgMissLatency::cpu.inst 82411.562762                       # average overall miss latency in ticks ((Tick/Count))
system.cpu.icache.demandAvgMissLatency::total 82411.562762                       # average overall miss latency in ticks ((Tick/Count))
system.cpu.icache.overallAvgMissLatency::cpu.inst 82411.562762                       # average overall miss latency ((Tick/Count))
system.cpu.icache.overallAvgMissLatency::total 82411.562762                       # average overall miss latency ((Tick/Count))
system.cpu.icache.blockedCycles::no_mshrs            0                       # number of cycles access was blocked (Cycle)
system.cpu.icache.blockedCycles::no_targets            0                       # number of cycles access was blocked (Cycle)
system.cpu.icache.blockedCauses::no_mshrs            0                       # number of times access was blocked (Count)
system.cpu.icache.blockedCauses::no_targets            0                       # number of times access was blocked (Count)
system.cpu.icache.avgBlocked::no_mshrs            nan                       # average number of cycles each access was blocked ((Cycle/Count))
system.cpu.icache.avgBlocked::no_targets          nan                       # average number of cycles each access was blocked ((Cycle/Count))
system.cpu.icache.demandMshrHits::cpu.inst          217                       # number of demand (read+write) MSHR hits (Count)
system.cpu.icache.demandMshrHits::total           217                       # number of demand (read+write) MSHR hits (Count)
system.cpu.icache.overallMshrHits::cpu.inst          217                       # number of overall MSHR hits (Count)
system.cpu.icache.overallMshrHits::total          217                       # number of overall MSHR hits (Count)
system.cpu.icache.demandMshrMisses::cpu.inst          739                       # number of demand (read+write) MSHR misses (Count)
system.cpu.icache.demandMshrMisses::total          739                       # number of demand (read+write) MSHR misses (Count)
system.cpu.icache.overallMshrMisses::cpu.inst          739                       # number of overall MSHR misses (Count)
system.cpu.icache.overallMshrMisses::total          739                       # number of overall MSHR misses (Count)
system.cpu.icache.demandMshrMissLatency::cpu.inst     59744441                       # number of demand (read+write) MSHR miss ticks (Tick)
system.cpu.icache.demandMshrMissLatency::total     59744441                       # number of demand (read+write) MSHR miss ticks (Tick)
system.cpu.icache.overallMshrMissLatency::cpu.inst     59744441                       # number of overall MSHR miss ticks (Tick)
system.cpu.icache.overallMshrMissLatency::total     59744441                       # number of overall MSHR miss ticks (Tick)
system.cpu.icache.demandMshrMissRate::cpu.inst     0.000005                       # mshr miss ratio for demand accesses (Ratio)
system.cpu.icache.demandMshrMissRate::total     0.000005                       # mshr miss ratio for demand accesses (Ratio)
system.cpu.icache.overallMshrMissRate::cpu.inst     0.000005                       # mshr miss ratio for overall accesses (Ratio)
system.cpu.icache.overallMshrMissRate::total     0.000005                       # mshr miss ratio for overall accesses (Ratio)
system.cpu.icache.demandAvgMshrMissLatency::cpu.inst 80844.981055                       # average overall mshr miss latency ((Tick/Count))
system.cpu.icache.demandAvgMshrMissLatency::total 80844.981055                       # average overall mshr miss latency ((Tick/Count))
system.cpu.icache.overallAvgMshrMissLatency::cpu.inst 80844.981055                       # average overall mshr miss latency ((Tick/Count))
system.cpu.icache.overallAvgMshrMissLatency::total 80844.981055                       # average overall mshr miss latency ((Tick/Count))
system.cpu.icache.replacements                    263                       # number of replacements (Count)
system.cpu.icache.ReadReq.hits::cpu.inst    162680078                       # number of ReadReq hits (Count)
system.cpu.icache.ReadReq.hits::total       162680078                       # number of ReadReq hits (Count)
system.cpu.icache.ReadReq.misses::cpu.inst          956                       # number of ReadReq misses (Count)
system.cpu.icache.ReadReq.misses::total           956                       # number of ReadReq misses (Count)
system.cpu.icache.ReadReq.missLatency::cpu.inst     78785454                       # number of ReadReq miss ticks (Tick)
system.cpu.icache.ReadReq.missLatency::total     78785454                       # number of ReadReq miss ticks (Tick)
system.cpu.icache.ReadReq.accesses::cpu.inst    162681034                       # number of ReadReq accesses(hits+misses) (Count)
system.cpu.icache.ReadReq.accesses::total    162681034                       # number of ReadReq accesses(hits+misses) (Count)
system.cpu.icache.ReadReq.missRate::cpu.inst     0.000006                       # miss rate for ReadReq accesses (Ratio)
system.cpu.icache.ReadReq.missRate::total     0.000006                       # miss rate for ReadReq accesses (Ratio)
system.cpu.icache.ReadReq.avgMissLatency::cpu.inst 82411.562762                       # average ReadReq miss latency ((Tick/Count))
system.cpu.icache.ReadReq.avgMissLatency::total 82411.562762                       # average ReadReq miss latency ((Tick/Count))
system.cpu.icache.ReadReq.mshrHits::cpu.inst          217                       # number of ReadReq MSHR hits (Count)
system.cpu.icache.ReadReq.mshrHits::total          217                       # number of ReadReq MSHR hits (Count)
system.cpu.icache.ReadReq.mshrMisses::cpu.inst          739                       # number of ReadReq MSHR misses (Count)
system.cpu.icache.ReadReq.mshrMisses::total          739                       # number of ReadReq MSHR misses (Count)
system.cpu.icache.ReadReq.mshrMissLatency::cpu.inst     59744441                       # number of ReadReq MSHR miss ticks (Tick)
system.cpu.icache.ReadReq.mshrMissLatency::total     59744441                       # number of ReadReq MSHR miss ticks (Tick)
system.cpu.icache.ReadReq.mshrMissRate::cpu.inst     0.000005                       # mshr miss rate for ReadReq accesses (Ratio)
system.cpu.icache.ReadReq.mshrMissRate::total     0.000005                       # mshr miss rate for ReadReq accesses (Ratio)
system.cpu.icache.ReadReq.avgMshrMissLatency::cpu.inst 80844.981055                       # average ReadReq mshr miss latency ((Tick/Count))
system.cpu.icache.ReadReq.avgMshrMissLatency::total 80844.981055                       # average ReadReq mshr miss latency ((Tick/Count))
system.cpu.icache.power_state.pwrStateResidencyTicks::UNDEFINED 2140297288866                       # Cumulative time (in ticks) in various power states (Tick)
system.cpu.icache.tags.tagsInUse           432.104220                       # Average ticks per tags in use ((Tick/Count))
system.cpu.icache.tags.totalRefs            162680817                       # Total number of references to valid blocks. (Count)
system.cpu.icache.tags.sampledRefs                739                       # Sample count of references to valid blocks. (Count)
system.cpu.icache.tags.avgRefs           220136.423545                       # Average number of references to valid blocks. ((Count/Count))
system.cpu.icache.tags.warmupTick               85500                       # The tick when the warmup percentage was hit. (Tick)
system.cpu.icache.tags.occupancies::cpu.inst   432.104220                       # Average occupied blocks per tick, per requestor ((Count/Tick))
system.cpu.icache.tags.avgOccs::cpu.inst     0.843954                       # Average percentage of cache occupancy ((Ratio/Tick))
system.cpu.icache.tags.avgOccs::total        0.843954                       # Average percentage of cache occupancy ((Ratio/Tick))
system.cpu.icache.tags.occupanciesTaskId::1024          476                       # Occupied blocks per task id (Count)
system.cpu.icache.tags.ageTaskId_1024::4          476                       # Occupied blocks per task id, per block age (Count)
system.cpu.icache.tags.ratioOccsTaskId::1024     0.929688                       # Ratio of occupied blocks and all blocks, per task id (Ratio)
system.cpu.icache.tags.tagAccesses          650724875                       # Number of tag accesses (Count)
system.cpu.icache.tags.dataAccesses         650724875                       # Number of data accesses (Count)
system.cpu.icache.tags.power_state.pwrStateResidencyTicks::UNDEFINED 2140297288866                       # Cumulative time (in ticks) in various power states (Tick)
system.cpu.iew.idleCycles                           0                       # Number of cycles IEW is idle (Cycle)
system.cpu.iew.squashCycles                  10593726                       # Number of cycles IEW is squashing (Cycle)
system.cpu.iew.blockCycles                   52210828                       # Number of cycles IEW is blocking (Cycle)
system.cpu.iew.unblockCycles                  7517800                       # Number of cycles IEW is unblocking (Cycle)
system.cpu.iew.dispatchedInsts             1611081620                       # Number of instructions dispatched to IQ (Count)
system.cpu.iew.dispSquashedInsts              1872447                       # Number of squashed instructions skipped by dispatch (Count)
system.cpu.iew.dispLoadInsts                498296008                       # Number of dispatched load instructions (Count)
system.cpu.iew.dispStoreInsts               274949819                       # Number of dispatched store instructions (Count)
system.cpu.iew.dispNonSpecInsts                  3486                       # Number of dispatched non-speculative instructions (Count)
system.cpu.iew.iqFullEvents                    297634                       # Number of times the IQ has become full, causing a stall (Count)
system.cpu.iew.lsqFullEvents                  6459433                       # Number of times the LSQ has become full, causing a stall (Count)
system.cpu.iew.memOrderViolationEvents         308558                       # Number of memory order violations (Count)
system.cpu.iew.predictedTakenIncorrect        5784799                       # Number of branches that were predicted taken incorrectly (Count)
system.cpu.iew.predictedNotTakenIncorrect      6758745                       # Number of branches that were predicted not taken incorrectly (Count)
system.cpu.iew.branchMispredicts             12543544                       # Number of branch mispredicts detected at execute (Count)
system.cpu.iew.instsToCommit               1376499560                       # Cumulative count of insts sent to commit (Count)
system.cpu.iew.writebackCount              1360447666                       # Cumulative count of insts written-back (Count)
system.cpu.iew.producerInst                 787799968                       # Number of instructions producing a value (Count)
system.cpu.iew.consumerInst                1219686846                       # Number of instructions consuming a value (Count)
system.cpu.iew.wbRate                        2.118571                       # Insts written-back per cycle ((Count/Cycle))
system.cpu.iew.wbFanout                      0.645903                       # Average fanout of values written-back ((Count/Count))
system.cpu.lsq0.forwLoads                    46761135                       # Number of loads that had data forwarded from stores (Count)
system.cpu.lsq0.squashedLoads               131584663                       # Number of loads squashed (Count)
system.cpu.lsq0.ignoredResponses               123680                       # Number of memory responses ignored because the instruction is squashed (Count)
system.cpu.lsq0.memOrderViolation              308558                       # Number of memory ordering violations (Count)
system.cpu.lsq0.squashedStores               59769517                       # Number of stores squashed (Count)
system.cpu.lsq0.rescheduledLoads              7830729                       # Number of loads that were rescheduled (Count)
system.cpu.lsq0.blockedByCache                2839310                       # Number of times an access to memory failed due to the cache being blocked (Count)
system.cpu.lsq0.loadToUse::samples          359040299                       # Distribution of cycle latency between the first time a load is issued and its completion (Unspecified)
system.cpu.lsq0.loadToUse::mean              3.819578                       # Distribution of cycle latency between the first time a load is issued and its completion (Unspecified)
system.cpu.lsq0.loadToUse::stdev             5.232418                       # Distribution of cycle latency between the first time a load is issued and its completion (Unspecified)
system.cpu.lsq0.loadToUse::0-9              352777702     98.26%     98.26% # Distribution of cycle latency between the first time a load is issued and its completion (Unspecified)
system.cpu.lsq0.loadToUse::10-19              4467943      1.24%     99.50% # Distribution of cycle latency between the first time a load is issued and its completion (Unspecified)
system.cpu.lsq0.loadToUse::20-29               875298      0.24%     99.74% # Distribution of cycle latency between the first time a load is issued and its completion (Unspecified)
system.cpu.lsq0.loadToUse::30-39               420128      0.12%     99.86% # Distribution of cycle latency between the first time a load is issued and its completion (Unspecified)
system.cpu.lsq0.loadToUse::40-49                98270      0.03%     99.89% # Distribution of cycle latency between the first time a load is issued and its completion (Unspecified)
system.cpu.lsq0.loadToUse::50-59                22496      0.01%     99.89% # Distribution of cycle latency between the first time a load is issued and its completion (Unspecified)
[...]
system.mem_ctrl.dram.perBankRdBursts::7        298690                       # Per bank write bursts (Count)
system.mem_ctrl.dram.perBankRdBursts::8        298361                       # Per bank write bursts (Count)
system.mem_ctrl.dram.perBankRdBursts::9        297252                       # Per bank write bursts (Count)
system.mem_ctrl.dram.perBankRdBursts::10       296925                       # Per bank write bursts (Count)
system.mem_ctrl.dram.perBankRdBursts::11       297288                       # Per bank write bursts (Count)
system.mem_ctrl.dram.perBankRdBursts::12       296027                       # Per bank write bursts (Count)
system.mem_ctrl.dram.perBankRdBursts::13       296951                       # Per bank write bursts (Count)
system.mem_ctrl.dram.perBankRdBursts::14       296190                       # Per bank write bursts (Count)
system.mem_ctrl.dram.perBankRdBursts::15       298081                       # Per bank write bursts (Count)
system.mem_ctrl.dram.perBankRdBursts::16       297407                       # Per bank write bursts (Count)
system.mem_ctrl.dram.perBankRdBursts::17       294885                       # Per bank write bursts (Count)
system.mem_ctrl.dram.perBankRdBursts::18       296949                       # Per bank write bursts (Count)
system.mem_ctrl.dram.perBankRdBursts::19       298894                       # Per bank write bursts (Count)
system.mem_ctrl.dram.perBankRdBursts::20       296116                       # Per bank write bursts (Count)
system.mem_ctrl.dram.perBankRdBursts::21       295951                       # Per bank write bursts (Count)
system.mem_ctrl.dram.perBankRdBursts::22       296170                       # Per bank write bursts (Count)
system.mem_ctrl.dram.perBankRdBursts::23       296284                       # Per bank write bursts (Count)
system.mem_ctrl.dram.perBankRdBursts::24       296979                       # Per bank write bursts (Count)
system.mem_ctrl.dram.perBankRdBursts::25       296083                       # Per bank write bursts (Count)
system.mem_ctrl.dram.perBankRdBursts::26       296393                       # Per bank write bursts (Count)
system.mem_ctrl.dram.perBankRdBursts::27       294146                       # Per bank write bursts (Count)
system.mem_ctrl.dram.perBankRdBursts::28       300216                       # Per bank write bursts (Count)
system.mem_ctrl.dram.perBankRdBursts::29       301612                       # Per bank write bursts (Count)
system.mem_ctrl.dram.perBankRdBursts::30       300264                       # Per bank write bursts (Count)
system.mem_ctrl.dram.perBankRdBursts::31       298673                       # Per bank write bursts (Count)
system.mem_ctrl.dram.perBankWrBursts::0        163079                       # Per bank write bursts (Count)
system.mem_ctrl.dram.perBankWrBursts::1        164678                       # Per bank write bursts (Count)
system.mem_ctrl.dram.perBankWrBursts::2        163775                       # Per bank write bursts (Count)
system.mem_ctrl.dram.perBankWrBursts::3        163814                       # Per bank write bursts (Count)
system.mem_ctrl.dram.perBankWrBursts::4        164308                       # Per bank write bursts (Count)
system.mem_ctrl.dram.perBankWrBursts::5        163886                       # Per bank write bursts (Count)
system.mem_ctrl.dram.perBankWrBursts::6        164800                       # Per bank write bursts (Count)
system.mem_ctrl.dram.perBankWrBursts::7        163849                       # Per bank write bursts (Count)
system.mem_ctrl.dram.perBankWrBursts::8        163688                       # Per bank write bursts (Count)
system.mem_ctrl.dram.perBankWrBursts::9        162765                       # Per bank write bursts (Count)
system.mem_ctrl.dram.perBankWrBursts::10       162701                       # Per bank write bursts (Count)
system.mem_ctrl.dram.perBankWrBursts::11       162482                       # Per bank write bursts (Count)
system.mem_ctrl.dram.perBankWrBursts::12       162473                       # Per bank write bursts (Count)
system.mem_ctrl.dram.perBankWrBursts::13       163156                       # Per bank write bursts (Count)
system.mem_ctrl.dram.perBankWrBursts::14       162818                       # Per bank write bursts (Count)
system.mem_ctrl.dram.perBankWrBursts::15       163353                       # Per bank write bursts (Count)
system.mem_ctrl.dram.perBankWrBursts::16       163269                       # Per bank write bursts (Count)
system.mem_ctrl.dram.perBankWrBursts::17       161791                       # Per bank write bursts (Count)
system.mem_ctrl.dram.perBankWrBursts::18       163029                       # Per bank write bursts (Count)
system.mem_ctrl.dram.perBankWrBursts::19       163240                       # Per bank write bursts (Count)
system.mem_ctrl.dram.perBankWrBursts::20       162548                       # Per bank write bursts (Count)
system.mem_ctrl.dram.perBankWrBursts::21       161080                       # Per bank write bursts (Count)
system.mem_ctrl.dram.perBankWrBursts::22       161745                       # Per bank write bursts (Count)
system.mem_ctrl.dram.perBankWrBursts::23       160797                       # Per bank write bursts (Count)
system.mem_ctrl.dram.perBankWrBursts::24       162128                       # Per bank write bursts (Count)
system.mem_ctrl.dram.perBankWrBursts::25       161032                       # Per bank write bursts (Count)
system.mem_ctrl.dram.perBankWrBursts::26       161582                       # Per bank write bursts (Count)
system.mem_ctrl.dram.perBankWrBursts::27       159783                       # Per bank write bursts (Count)
system.mem_ctrl.dram.perBankWrBursts::28       164280                       # Per bank write bursts (Count)
system.mem_ctrl.dram.perBankWrBursts::29       164307                       # Per bank write bursts (Count)
system.mem_ctrl.dram.perBankWrBursts::30       164182                       # Per bank write bursts (Count)
system.mem_ctrl.dram.perBankWrBursts::31       163108                       # Per bank write bursts (Count)
system.mem_ctrl.dram.totQLat             143393796960                       # Total ticks spent queuing (Tick)
system.mem_ctrl.dram.totBusLat            31763779404                       # Total ticks spent in databus transfers (Tick)
system.mem_ctrl.dram.totMemAccLat        310144105884                       # Total ticks spent from burst creation until serviced by the DRAM (Tick)
system.mem_ctrl.dram.avgQLat                 15041.92                       # Average queueing delay per DRAM burst ((Tick/Count))
system.mem_ctrl.dram.avgBusLat                3332.00                       # Average bus latency per DRAM burst ((Tick/Count))
system.mem_ctrl.dram.avgMemAccLat            32533.92                       # Average memory access latency per DRAM burst ((Tick/Count))
system.mem_ctrl.dram.readRowHits              8421450                       # Number of row buffer hits during reads (Count)
system.mem_ctrl.dram.writeRowHits             4459858                       # Number of row buffer hits during writes (Count)
system.mem_ctrl.dram.readRowHitRate             88.34                       # Row buffer hit rate for reads (Ratio)
system.mem_ctrl.dram.writeRowHitRate            85.54                       # Row buffer hit rate for writes (Ratio)
system.mem_ctrl.dram.bytesPerActivate::samples      1865165                       # Bytes accessed per row activation (Byte)
system.mem_ctrl.dram.bytesPerActivate::mean   506.000419                       # Bytes accessed per row activation (Byte)
system.mem_ctrl.dram.bytesPerActivate::gmean   318.593637                       # Bytes accessed per row activation (Byte)
system.mem_ctrl.dram.bytesPerActivate::stdev   379.532923                       # Bytes accessed per row activation (Byte)
system.mem_ctrl.dram.bytesPerActivate::0-127       478507     25.65%     25.65% # Bytes accessed per row activation (Byte)
system.mem_ctrl.dram.bytesPerActivate::128-255       184545      9.89%     35.55% # Bytes accessed per row activation (Byte)
system.mem_ctrl.dram.bytesPerActivate::256-383        76603      4.11%     39.66% # Bytes accessed per row activation (Byte)
system.mem_ctrl.dram.bytesPerActivate::384-511        89026      4.77%     44.43% # Bytes accessed per row activation (Byte)
system.mem_ctrl.dram.bytesPerActivate::512-639       374538     20.08%     64.51% # Bytes accessed per row activation (Byte)
system.mem_ctrl.dram.bytesPerActivate::640-767        76261      4.09%     68.60% # Bytes accessed per row activation (Byte)
system.mem_ctrl.dram.bytesPerActivate::768-895        48499      2.60%     71.20% # Bytes accessed per row activation (Byte)
system.mem_ctrl.dram.bytesPerActivate::896-1023        47759      2.56%     73.76% # Bytes accessed per row activation (Byte)
system.mem_ctrl.dram.bytesPerActivate::1024-1151       489427     26.24%    100.00% # Bytes accessed per row activation (Byte)
system.mem_ctrl.dram.bytesPerActivate::total      1865165                       # Bytes accessed per row activation (Byte)
system.mem_ctrl.dram.bytesRead              610108608                       # Total bytes read (Byte)
system.mem_ctrl.dram.bytesWritten           333665664                       # Total bytes written (Byte)
system.mem_ctrl.dram.avgRdBW               285.057880                       # Average DRAM read bandwidth in MiBytes/s ((Byte/Second))
system.mem_ctrl.dram.avgWrBW               155.896877                       # Average DRAM write bandwidth in MiBytes/s ((Byte/Second))
system.mem_ctrl.dram.peakBW                  19207.00                       # Theoretical peak bandwidth in MiByte/s ((Byte/Second))
system.mem_ctrl.dram.busUtil                     2.30                       # Data bus utilization in percentage (Ratio)
system.mem_ctrl.dram.busUtilRead                 1.48                       # Data bus utilization in percentage for reads (Ratio)
system.mem_ctrl.dram.busUtilWrite                0.81                       # Data bus utilization in percentage for writes (Ratio)
system.mem_ctrl.dram.pageHitRate                87.35                       # Row buffer hit rate, read and write combined (Ratio)
system.mem_ctrl.dram.power_state.pwrStateResidencyTicks::UNDEFINED 2140297288866                       # Cumulative time (in ticks) in various power states (Tick)
system.mem_ctrl.dram.rank0.actEnergy     2930585216.831126                       # Energy for activate commands per rank (pJ) (Joule)
system.mem_ctrl.dram.rank0.preEnergy     3896175474.167857                       # Energy for precharge commands per rank (pJ) (Joule)
system.mem_ctrl.dram.rank0.readEnergy    20089053563.026432                       # Energy for read commands per rank (pJ) (Joule)
system.mem_ctrl.dram.rank0.writeEnergy   9830816099.999058                       # Energy for write commands per rank (pJ) (Joule)
system.mem_ctrl.dram.rank0.refreshEnergy 380834768206.096130                       # Energy for refresh commands per rank (pJ) (Joule)
system.mem_ctrl.dram.rank0.actBackEnergy 542688949294.003601                       # Energy for active background per rank (pJ) (Joule)
system.mem_ctrl.dram.rank0.preBackEnergy 980204730906.589355                       # Energy for precharge background per rank (pJ) (Joule)
system.mem_ctrl.dram.rank0.actPowerDownEnergy            0                       # Energy for active power-down per rank (pJ) (Joule)
system.mem_ctrl.dram.rank0.prePowerDownEnergy            0                       # Energy for precharge power-down per rank (pJ) (Joule)
system.mem_ctrl.dram.rank0.selfRefreshEnergy            0                       # Energy for self refresh per rank (pJ) (Joule)
system.mem_ctrl.dram.rank0.totalEnergy   1940475078759.322510                       # Total energy per rank (pJ) (Joule)
system.mem_ctrl.dram.rank0.averagePower    906.638105                       # Core power per rank (mW) (Watt)
system.mem_ctrl.dram.rank0.totalIdleTime            0                       # Total Idle time Per DRAM Rank (Tick)
system.mem_ctrl.dram.rank0.pwrStateTime::IDLE 1495855183946                       # Time in different power states (Tick)
system.mem_ctrl.dram.rank0.pwrStateTime::REF  96213600000                       # Time in different power states (Tick)
system.mem_ctrl.dram.rank0.pwrStateTime::SREF            0                       # Time in different power states (Tick)
system.mem_ctrl.dram.rank0.pwrStateTime::PRE_PDN            0                       # Time in different power states (Tick)
system.mem_ctrl.dram.rank0.pwrStateTime::ACT 548228504920                       # Time in different power states (Tick)
system.mem_ctrl.dram.rank0.pwrStateTime::ACT_PDN            0                       # Time in different power states (Tick)
system.mem_ctrl.dram.rank1.actEnergy     2886401857.247188                       # Energy for activate commands per rank (pJ) (Joule)
system.mem_ctrl.dram.rank1.preEnergy     3837434264.054850                       # Energy for precharge commands per rank (pJ) (Joule)
system.mem_ctrl.dram.rank1.readEnergy    20009541556.557682                       # Energy for read commands per rank (pJ) (Joule)
system.mem_ctrl.dram.rank1.writeEnergy   9764200516.895075                       # Energy for write commands per rank (pJ) (Joule)
system.mem_ctrl.dram.rank1.refreshEnergy 380834768206.096130                       # Energy for refresh commands per rank (pJ) (Joule)
system.mem_ctrl.dram.rank1.actBackEnergy 524382609387.938599                       # Energy for active background per rank (pJ) (Joule)
system.mem_ctrl.dram.rank1.preBackEnergy 994270619195.772461                       # Energy for precharge background per rank (pJ) (Joule)
system.mem_ctrl.dram.rank1.actPowerDownEnergy            0                       # Energy for active power-down per rank (pJ) (Joule)
system.mem_ctrl.dram.rank1.prePowerDownEnergy            0                       # Energy for precharge power-down per rank (pJ) (Joule)
system.mem_ctrl.dram.rank1.selfRefreshEnergy            0                       # Energy for self refresh per rank (pJ) (Joule)
system.mem_ctrl.dram.rank1.totalEnergy   1935985574983.484863                       # Total energy per rank (pJ) (Joule)
system.mem_ctrl.dram.rank1.averagePower    904.540498                       # Core power per rank (mW) (Watt)
system.mem_ctrl.dram.rank1.totalIdleTime            0                       # Total Idle time Per DRAM Rank (Tick)
system.mem_ctrl.dram.rank1.pwrStateTime::IDLE 1517454142951                       # Time in different power states (Tick)
system.mem_ctrl.dram.rank1.pwrStateTime::REF  96213600000                       # Time in different power states (Tick)
system.mem_ctrl.dram.rank1.pwrStateTime::SREF            0                       # Time in different power states (Tick)
system.mem_ctrl.dram.rank1.pwrStateTime::PRE_PDN            0                       # Time in different power states (Tick)
system.mem_ctrl.dram.rank1.pwrStateTime::ACT 526629545915                       # Time in different power states (Tick)
system.mem_ctrl.dram.rank1.pwrStateTime::ACT_PDN            0                       # Time in different power states (Tick)
system.mem_ctrl.power_state.pwrStateResidencyTicks::UNDEFINED 2140297288866                       # Cumulative time (in ticks) in various power states (Tick)
system.membus.transDist::ReadResp             4471781                       # Transaction distribution (Count)
system.membus.transDist::WritebackDirty       5213577                       # Transaction distribution (Count)
system.membus.transDist::CleanEvict           4288906                       # Transaction distribution (Count)
system.membus.transDist::ReadExReq            5064025                       # Transaction distribution (Count)
system.membus.transDist::ReadExResp           5064025                       # Transaction distribution (Count)
system.membus.transDist::ReadSharedReq        4471781                       # Transaction distribution (Count)
system.membus.pktCount_system.l2cache.mem_side_port::system.mem_ctrl.port     28574095                       # Packet count per connected requestor and responder (Count)
system.membus.pktCount::total                28574095                       # Packet count per connected requestor and responder (Count)
system.membus.pktSize_system.l2cache.mem_side_port::system.mem_ctrl.port    943960512                       # Cumulative packet size per connected requestor and responder (Byte)
system.membus.pktSize::total                943960512                       # Cumulative packet size per connected requestor and responder (Byte)
system.membus.snoops                                0                       # Total snoops (Count)
system.membus.snoopTraffic                          0                       # Total snoop traffic (Byte)
system.membus.snoopFanout::samples            9535806                       # Request fanout histogram (Count)
system.membus.snoopFanout::mean                     0                       # Request fanout histogram (Count)
system.membus.snoopFanout::stdev                    0                       # Request fanout histogram (Count)
system.membus.snoopFanout::underflows               0      0.00%      0.00% # Request fanout histogram (Count)
system.membus.snoopFanout::0                  9535806    100.00%    100.00% # Request fanout histogram (Count)
system.membus.snoopFanout::1                        0      0.00%    100.00% # Request fanout histogram (Count)
system.membus.snoopFanout::overflows                0      0.00%    100.00% # Request fanout histogram (Count)
system.membus.snoopFanout::min_value                0                       # Request fanout histogram (Count)
system.membus.snoopFanout::max_value                0                       # Request fanout histogram (Count)
system.membus.snoopFanout::total              9535806                       # Request fanout histogram (Count)
system.membus.power_state.pwrStateResidencyTicks::UNDEFINED 2140297288866                       # Cumulative time (in ticks) in various power states (Tick)
system.membus.reqLayer0.occupancy         22278096177                       # Layer occupancy (ticks) (Tick)
system.membus.reqLayer0.utilization               0.0                       # Layer utilization (Ratio)
system.membus.respLayer0.occupancy        24647073046                       # Layer occupancy (ticks) (Tick)
system.membus.respLayer0.utilization              0.0                       # Layer utilization (Ratio)
system.membus.snoop_filter.totRequests       19038289                       # Total number of requests made to the snoop filter. (Count)
system.membus.snoop_filter.hitSingleRequests      9502565                       # Number of requests hitting in the snoop filter with a single holder of the requested data. (Count)
system.membus.snoop_filter.hitMultiRequests            0                       # Number of requests hitting in the snoop filter with multiple (>1) holders of the requested data. (Count)
system.membus.snoop_filter.totSnoops                0                       # Total number of snoops made to the snoop filter. (Count)
system.membus.snoop_filter.hitSingleSnoops            0                       # Number of snoops hitting in the snoop filter with a single holder of the requested data. (Count)
system.membus.snoop_filter.hitMultiSnoops            0                       # Number of snoops hitting in the snoop filter with multiple (>1) holders of the requested data. (Count)
system.workload.inst.arm                            0                       # number of arm instructions executed (Count)
system.workload.inst.quiesce                        0                       # number of quiesce instructions executed (Count)

---------- End Simulation Statistics   ----------
