
---------- Begin Simulation Statistics ----------
simSeconds                                   0.475277                       # Number of seconds simulated (Second)
simTicks                                 475276690150                       # Number of ticks simulated (Tick)
finalTick                                475276690150                       # Number of ticks from beginning of simulation (restored from checkpoints and never reset) (Tick)
simFreq                                  1000000000000                       # The number of ticks per simulated second ((Tick/Second))
hostSeconds                                   4719.69                       # Real time elapsed on the host (Second)
hostTickRate                                100700912                       # The number of ticks simulated per host second (ticks/s) ((Tick/Second))
hostMemory                                    2296668                       # Number of bytes of host memory used (Byte)
simInsts                                   1000000000                       # Number of instructions simulated (Count)
simOps                                     1160112256                       # Number of ops (including micro ops) simulated (Count)
hostInstRate                                   211878                       # Simulator instruction rate (inst/s) ((Count/Second))
hostOpRate                                     245803                       # Simulator op (including micro ops) rate (op/s) ((Count/Second))
system.clk_domain.clock                           500                       # Clock period in ticks (Tick)
system.clk_domain.voltage_domain.voltage            1                       # Voltage in Volts (Volt)
system.cpu.numCycles                       1284531596                       # Number of cpu cycles simulated (Cycle)
system.cpu.numWorkItemsStarted                      0                       # Number of work items this cpu started (Count)
system.cpu.numWorkItemsCompleted                    0                       # Number of work items this cpu completed (Count)
system.cpu.instsAdded                      1642324772                       # Number of instructions added to the IQ (excludes non-spec) (Count)
system.cpu.nonSpecInstsAdded                     6894                       # Number of non-speculative instructions added to the IQ (Count)
system.cpu.instsIssued                     1490336390                       # Number of instructions issued (Count)
system.cpu.squashedInstsIssued                1548948                       # Number of squashed instructions issued (Count)
system.cpu.squashedInstsExamined            482219305                       # Number of squashed instructions iterated over during squash; mainly for profiling (Count)
system.cpu.squashedOperandsExamined        1247439785                       # Number of squashed operands that are examined and possibly removed from graph (Count)
system.cpu.squashedNonSpecRemoved                6355                       # Number of squashed non-spec instructions that were removed (Count)
system.cpu.numIssuedDist::samples          1284459204                       # Number of insts issued each cycle (Count)
system.cpu.numIssuedDist::mean               1.160283                       # Number of insts issued each cycle (Count)
system.cpu.numIssuedDist::stdev              1.843538                       # Number of insts issued each cycle (Count)
system.cpu.numIssuedDist::underflows                0      0.00%      0.00% # Number of insts issued each cycle (Count)
system.cpu.numIssuedDist::0                 800604989     62.33%     62.33% # Number of insts issued each cycle (Count)
system.cpu.numIssuedDist::1                 114641370      8.93%     71.26% # Number of insts issued each cycle (Count)
system.cpu.numIssuedDist::2                  98072750      7.64%     78.89% # Number of insts issued each cycle (Count)
system.cpu.numIssuedDist::3                  80371994      6.26%     85.15% # Number of insts issued each cycle (Count)
system.cpu.numIssuedDist::4                  95867908      7.46%     92.61% # Number of insts issued each cycle (Count)
system.cpu.numIssuedDist::5                  42568868      3.31%     95.93% # Number of insts issued each cycle (Count)
system.cpu.numIssuedDist::6                  32508762      2.53%     98.46% # Number of insts issued each cycle (Count)
system.cpu.numIssuedDist::7                  11515510      0.90%     99.35% # Number of insts issued each cycle (Count)
system.cpu.numIssuedDist::8                   8307053      0.65%    100.00% # Number of insts issued each cycle (Count)
system.cpu.numIssuedDist::overflows                 0      0.00%    100.00% # Number of insts issued each cycle (Count)
system.cpu.numIssuedDist::min_value                 0                       # Number of insts issued each cycle (Count)
system.cpu.numIssuedDist::max_value                 8                       # Number of insts issued each cycle (Count)
system.cpu.numIssuedDist::total            1284459204                       # Number of insts issued each cycle (Count)
system.cpu.statFuBusy::No_OpClass                   0      0.00%      0.00% # attempts to use FU when none available (Count)
system.cpu.statFuBusy::IntAlu                 2540585      4.71%      4.71% # attempts to use FU when none available (Count)
system.cpu.statFuBusy::IntMult                      0      0.00%      4.71% # attempts to use FU when none available (Count)
system.cpu.statFuBusy::IntDiv                       0      0.00%      4.71% # attempts to use FU when none available (Count)
system.cpu.statFuBusy::FloatAdd                     0      0.00%      4.71% # attempts to use FU when none available (Count)
system.cpu.statFuBusy::FloatCmp                     0      0.00%      4.71% # attempts to use FU when none available (Count)
system.cpu.statFuBusy::FloatCvt                     0      0.00%      4.71% # attempts to use FU when none available (Count)
system.cpu.statFuBusy::FloatMult                    0      0.00%      4.71% # attempts to use FU when none available (Count)
system.cpu.statFuBusy::FloatMultAcc                 0      0.00%      4.71% # attempts to use FU when none available (Count)
system.cpu.statFuBusy::FloatDiv                     0      0.00%      4.71% # attempts to use FU when none available (Count)
system.cpu.statFuBusy::FloatMisc                    0      0.00%      4.71% # attempts to use FU when none available (Count)
system.cpu.statFuBusy::FloatSqrt                    0      0.00%      4.71% # attempts to use FU when none available (Count)
system.cpu.statFuBusy::SimdAdd                      0      0.00%      4.71% # attempts to use FU when none available (Count)
system.cpu.statFuBusy::SimdAddAcc                   0      0.00%      4.71% # attempts to use FU when none available (Count)
system.cpu.statFuBusy::SimdAlu                      0      0.00%      4.71% # attempts to use FU when none available (Count)
system.cpu.statFuBusy::SimdCmp                      0      0.00%      4.71% # attempts to use FU when none available (Count)
system.cpu.statFuBusy::SimdCvt                      0      0.00%      4.71% # attempts to use FU when none available (Count)
system.cpu.statFuBusy::SimdMisc                     0      0.00%      4.71% # attempts to use FU when none available (Count)
system.cpu.statFuBusy::SimdMult                     0      0.00%      4.71% # attempts to use FU when none available (Count)
system.cpu.statFuBusy::SimdMultAcc                  0      0.00%      4.71% # attempts to use FU when none available (Count)
system.cpu.statFuBusy::SimdShift                    0      0.00%      4.71% # attempts to use FU when none available (Count)
system.cpu.statFuBusy::SimdShiftAcc                 0      0.00%      4.71% # attempts to use FU when none available (Count)
system.cpu.statFuBusy::SimdDiv                      0      0.00%      4.71% # attempts to use FU when none available (Count)
system.cpu.statFuBusy::SimdSqrt                     0      0.00%      4.71% # attempts to use FU when none available (Count)
system.cpu.statFuBusy::SimdFloatAdd                 0      0.00%      4.71% # attempts to use FU when none available (Count)
system.cpu.statFuBusy::SimdFloatAlu                 0      0.00%      4.71% # attempts to use FU when none available (Count)
system.cpu.statFuBusy::SimdFloatCmp                 0      0.00%      4.71% # attempts to use FU when none available (Count)
system.cpu.statFuBusy::SimdFloatCvt                 0      0.00%      4.71% # attempts to use FU when none available (Count)
system.cpu.statFuBusy::SimdFloatDiv                 0      0.00%      4.71% # attempts to use FU when none available (Count)
system.cpu.statFuBusy::SimdFloatMisc                0      0.00%      4.71% # attempts to use FU when none available (Count)
system.cpu.statFuBusy::SimdFloatMult                0      0.00%      4.71% # attempts to use FU when none available (Count)
system.cpu.statFuBusy::SimdFloatMultAcc             0      0.00%      4.71% # attempts to use FU when none available (Count)
system.cpu.statFuBusy::SimdFloatSqrt                0      0.00%      4.71% # attempts to use FU when none available (Count)
system.cpu.statFuBusy::SimdReduceAdd                0      0.00%      4.71% # attempts to use FU when none available (Count)
system.cpu.statFuBusy::SimdReduceAlu                0      0.00%      4.71% # attempts to use FU when none available (Count)
system.cpu.statFuBusy::SimdReduceCmp                0      0.00%      4.71% # attempts to use FU when none available (Count)
system.cpu.statFuBusy::SimdFloatReduceAdd            0      0.00%      4.71% # attempts to use FU when none available (Count)
system.cpu.statFuBusy::SimdFloatReduceCmp            0      0.00%      4.71% # attempts to use FU when none available (Count)
system.cpu.statFuBusy::SimdAes                      0      0.00%      4.71% # attempts to use FU when none available (Count)
system.cpu.statFuBusy::SimdAesMix                   0      0.00%      4.71% # attempts to use FU when none available (Count)
system.cpu.statFuBusy::SimdSha1Hash                 0      0.00%      4.71% # attempts to use FU when none available (Count)
system.cpu.statFuBusy::SimdSha1Hash2                0      0.00%      4.71% # attempts to use FU when none available (Count)
system.cpu.statFuBusy::SimdSha256Hash               0      0.00%      4.71% # attempts to use FU when none available (Count)
system.cpu.statFuBusy::SimdSha256Hash2              0      0.00%      4.71% # attempts to use FU when none available (Count)
system.cpu.statFuBusy::SimdShaSigma2                0      0.00%      4.71% # attempts to use FU when none available (Count)
system.cpu.statFuBusy::SimdShaSigma3                0      0.00%      4.71% # attempts to use FU when none available (Count)
system.cpu.statFuBusy::SimdPredAlu                  0      0.00%      4.71% # attempts to use FU when none available (Count)
system.cpu.statFuBusy::MemRead               41232589     76.41%     81.12% # attempts to use FU when none available (Count)
system.cpu.statFuBusy::MemWrite              10187218     18.88%    100.00% # attempts to use FU when none available (Count)
system.cpu.statFuBusy::FloatMemRead                 0      0.00%    100.00% # attempts to use FU when none available (Count)
system.cpu.statFuBusy::FloatMemWrite                0      0.00%    100.00% # attempts to use FU when none available (Count)
system.cpu.statFuBusy::IprAccess                    0      0.00%    100.00% # attempts to use FU when none available (Count)
system.cpu.statFuBusy::InstPrefetch                 0      0.00%    100.00% # attempts to use FU when none available (Count)
system.cpu.statIssuedInstType_0::No_OpClass            2      0.00%      0.00% # Number of instructions issued per FU type, per thread (Count)
system.cpu.statIssuedInstType_0::IntAlu     736386575     49.41%     49.41% # Number of instructions issued per FU type, per thread (Count)
system.cpu.statIssuedInstType_0::IntMult          882      0.00%     49.41% # Number of instructions issued per FU type, per thread (Count)
system.cpu.statIssuedInstType_0::IntDiv             0      0.00%     49.41% # Number of instructions issued per FU type, per thread (Count)
system.cpu.statIssuedInstType_0::FloatAdd            0      0.00%     49.41% # Number of instructions issued per FU type, per thread (Count)
system.cpu.statIssuedInstType_0::FloatCmp            0      0.00%     49.41% # Number of instructions issued per FU type, per thread (Count)
system.cpu.statIssuedInstType_0::FloatCvt            0      0.00%     49.41% # Number of instructions issued per FU type, per thread (Count)
system.cpu.statIssuedInstType_0::FloatMult            0      0.00%     49.41% # Number of instructions issued per FU type, per thread (Count)
system.cpu.statIssuedInstType_0::FloatMultAcc            0      0.00%     49.41% # Number of instructions issued per FU type, per thread (Count)
system.cpu.statIssuedInstType_0::FloatDiv            0      0.00%     49.41% # Number of instructions issued per FU type, per thread (Count)
system.cpu.statIssuedInstType_0::FloatMisc            0      0.00%     49.41% # Number of instructions issued per FU type, per thread (Count)
system.cpu.statIssuedInstType_0::FloatSqrt            0      0.00%     49.41% # Number of instructions issued per FU type, per thread (Count)
system.cpu.statIssuedInstType_0::SimdAdd            0      0.00%     49.41% # Number of instructions issued per FU type, per thread (Count)
system.cpu.statIssuedInstType_0::SimdAddAcc            0      0.00%     49.41% # Number of instructions issued per FU type, per thread (Count)
system.cpu.statIssuedInstType_0::SimdAlu            0      0.00%     49.41% # Number of instructions issued per FU type, per thread (Count)
system.cpu.statIssuedInstType_0::SimdCmp            0      0.00%     49.41% # Number of instructions issued per FU type, per thread (Count)
system.cpu.statIssuedInstType_0::SimdCvt            0      0.00%     49.41% # Number of instructions issued per FU type, per thread (Count)
system.cpu.statIssuedInstType_0::SimdMisc            0      0.00%     49.41% # Number of instructions issued per FU type, per thread (Count)
system.cpu.statIssuedInstType_0::SimdMult            0      0.00%     49.41% # Number of instructions issued per FU type, per thread (Count)
system.cpu.statIssuedInstType_0::SimdMultAcc            0      0.00%     49.41% # Number of instructions issued per FU type, per thread (Count)
system.cpu.statIssuedInstType_0::SimdShift            0      0.00%     49.41% # Number of instructions issued per FU type, per thread (Count)
system.cpu.statIssuedInstType_0::SimdShiftAcc            0      0.00%     49.41% # Number of instructions issued per FU type, per thread (Count)
system.cpu.statIssuedInstType_0::SimdDiv            0      0.00%     49.41% # Number of instructions issued per FU type, per thread (Count)
system.cpu.statIssuedInstType_0::SimdSqrt            0      0.00%     49.41% # Number of instructions issued per FU type, per thread (Count)
system.cpu.statIssuedInstType_0::SimdFloatAdd            0      0.00%     49.41% # Number of instructions issued per FU type, per thread (Count)
system.cpu.statIssuedInstType_0::SimdFloatAlu            0      0.00%     49.41% # Number of instructions issued per FU type, per thread (Count)
system.cpu.statIssuedInstType_0::SimdFloatCmp            0      0.00%     49.41% # Number of instructions issued per FU type, per thread (Count)
system.cpu.statIssuedInstType_0::SimdFloatCvt           38      0.00%     49.41% # Number of instructions issued per FU type, per thread (Count)
system.cpu.statIssuedInstType_0::SimdFloatDiv            6      0.00%     49.41% # Number of instructions issued per FU type, per thread (Count)
system.cpu.statIssuedInstType_0::SimdFloatMisc           23      0.00%     49.41% # Number of instructions issued per FU type, per thread (Count)
system.cpu.statIssuedInstType_0::SimdFloatMult           10      0.00%     49.41% # Number of instructions issued per FU type, per thread (Count)
system.cpu.statIssuedInstType_0::SimdFloatMultAcc            0      0.00%     49.41% # Number of instructions issued per FU type, per thread (Count)
system.cpu.statIssuedInstType_0::SimdFloatSqrt            0      0.00%     49.41% # Number of instructions issued per FU type, per thread (Count)
system.cpu.statIssuedInstType_0::SimdReduceAdd            0      0.00%     49.41% # Number of instructions issued per FU type, per thread (Count)
system.cpu.statIssuedInstType_0::SimdReduceAlu            0      0.00%     49.41% # Number of instructions issued per FU type, per thread (Count)
system.cpu.statIssuedInstType_0::SimdReduceCmp            0      0.00%     49.41% # Number of instructions issued per FU type, per thread (Count)
system.cpu.statIssuedInstType_0::SimdFloatReduceAdd            0      0.00%     49.41% # Number of instructions issued per FU type, per thread (Count)
system.cpu.statIssuedInstType_0::SimdFloatReduceCmp            0      0.00%     49.41% # Number of instructions issued per FU type, per thread (Count)
system.cpu.statIssuedInstType_0::SimdAes            0      0.00%     49.41% # Number of instructions issued per FU type, per thread (Count)
system.cpu.statIssuedInstType_0::SimdAesMix            0      0.00%     49.41% # Number of instructions issued per FU type, per thread (Count)
system.cpu.statIssuedInstType_0::SimdSha1Hash            0      0.00%     49.41% # Number of instructions issued per FU type, per thread (Count)
system.cpu.statIssuedInstType_0::SimdSha1Hash2            0      0.00%     49.41% # Number of instructions issued per FU type, per thread (Count)
system.cpu.statIssuedInstType_0::SimdSha256Hash            0      0.00%     49.41% # Number of instructions issued per FU type, per thread (Count)
system.cpu.statIssuedInstType_0::SimdSha256Hash2            0      0.00%     49.41% # Number of instructions issued per FU type, per thread (Count)
system.cpu.statIssuedInstType_0::SimdShaSigma2            0      0.00%     49.41% # Number of instructions issued per FU type, per thread (Count)
system.cpu.statIssuedInstType_0::SimdShaSigma3            0      0.00%     49.41% # Number of instructions issued per FU type, per thread (Count)
system.cpu.statIssuedInstType_0::SimdPredAlu            0      0.00%     49.41% # Number of instructions issued per FU type, per thread (Count)
system.cpu.statIssuedInstType_0::MemRead    517361415     34.71%     84.13% # Number of instructions issued per FU type, per thread (Count)
system.cpu.statIssuedInstType_0::MemWrite    236587439     15.87%    100.00% # Number of instructions issued per FU type, per thread (Count)
system.cpu.statIssuedInstType_0::FloatMemRead            0      0.00%    100.00% # Number of instructions issued per FU type, per thread (Count)
system.cpu.statIssuedInstType_0::FloatMemWrite            0      0.00%    100.00% # Number of instructions issued per FU type, per thread (Count)
system.cpu.statIssuedInstType_0::IprAccess            0      0.00%    100.00% # Number of instructions issued per FU type, per thread (Count)
system.cpu.statIssuedInstType_0::InstPrefetch            0      0.00%    100.00% # Number of instructions issued per FU type, per thread (Count)
system.cpu.statIssuedInstType_0::total     1490336390                       # Number of instructions issued per FU type, per thread (Count)
system.cpu.issueRate                         1.160218                       # Inst issue rate ((Count/Cycle))
system.cpu.fuBusy                            53960392                       # FU busy when requested (Count)
system.cpu.fuBusyRate                        0.036207                       # FU busy rate (busy events/executed inst) ((Count/Count))
system.cpu.intInstQueueReads               4320641318                       # Number of integer instruction queue reads (Count)
system.cpu.intInstQueueWrites              2124849230                       # Number of integer instruction queue writes (Count)
system.cpu.intInstQueueWakeupAccesses      1379760112                       # Number of integer instruction queue wakeup accesses (Count)
system.cpu.fpInstQueueReads                         0                       # Number of floating instruction queue reads (Count)
system.cpu.fpInstQueueWrites                        0                       # Number of floating instruction queue writes (Count)
system.cpu.fpInstQueueWakeupAccesses                0                       # Number of floating instruction queue wakeup accesses (Count)
system.cpu.vecInstQueueReads                        0                       # Number of vector instruction queue reads (Count)
system.cpu.vecInstQueueWrites                       0                       # Number of vector instruction queue writes (Count)
system.cpu.vecInstQueueWakeupAccesses               0                       # Number of vector instruction queue wakeup accesses (Count)
system.cpu.intAluAccesses                  1544296780                       # Number of integer alu accesses (Count)
system.cpu.fpAluAccesses                            0                       # Number of floating point alu accesses (Count)
system.cpu.vecAluAccesses                           0                       # Number of vector alu accesses (Count)
system.cpu.numInsts                        1472211603                       # Number of executed instructions (Count)
system.cpu.numLoadInsts                     508826036                       # Number of load instructions executed (Count)
system.cpu.numSquashedInsts                  18124781                       # Number of squashed instructions skipped in execute (Count)
system.cpu.numSwp                                   0                       # Number of swp insts executed (Count)
system.cpu.numNop                                 299                       # Number of nop insts executed (Count)
system.cpu.numRefs                          742442681                       # Number of memory reference insts executed (Count)
system.cpu.numBranches                      180868458                       # Number of branches executed (Count)
system.cpu.numStoreInsts                    233616645                       # Number of stores executed (Count)
system.cpu.numRate                           1.146108                       # Inst execution rate ((Count/Cycle))
system.cpu.timesIdled                             581                       # Number of times that the entire CPU went into an idle state and unscheduled itself (Count)
system.cpu.idleCycles                           72392                       # Total number of cycles that the CPU has spent unscheduled due to idling (Cycle)
system.cpu.committedInsts                  1000000000                       # Number of Instructions Simulated (Count)
system.cpu.committedOps                    1160112256                       # Number of Ops (including micro ops) Simulated (Count)
system.cpu.cpi                               1.284532                       # CPI: Cycles Per Instruction ((Cycle/Count))
system.cpu.totalCpi                          1.284532                       # CPI: Total CPI of All Threads ((Cycle/Count))
system.cpu.ipc                               0.778494                       # IPC: Instructions Per Cycle ((Count/Cycle))
system.cpu.totalIpc                          0.778494                       # IPC: Total IPC of All Threads ((Count/Cycle))
system.cpu.intRegfileReads                 1860741669                       # Number of integer regfile reads (Count)
system.cpu.intRegfileWrites                 874594554                       # Number of integer regfile writes (Count)
system.cpu.vecRegfileReads                        189                       # number of vector regfile reads (Count)
system.cpu.vecRegfileWrites                       709                       # number of vector regfile writes (Count)
system.cpu.ccRegfileReads                  5689244381                       # number of cc regfile reads (Count)
system.cpu.ccRegfileWrites                  741775530                       # number of cc regfile writes (Count)
system.cpu.miscRegfileReads                 653255744                       # number of misc regfile reads (Count)
system.cpu.miscRegfileWrites                      158                       # number of misc regfile writes (Count)
system.cpu.MemDepUnit__0.insertedLoads      506126123                       # Number of loads inserted to the mem dependence unit. (Count)
system.cpu.MemDepUnit__0.insertedStores     277672116                       # Number of stores inserted to the mem dependence unit. (Count)
system.cpu.MemDepUnit__0.conflictingLoads    155807046                       # Number of conflicting loads. (Count)
system.cpu.MemDepUnit__0.conflictingStores    110211448                       # Number of conflicting stores. (Count)
system.cpu.MemDepUnit__1.insertedLoads              0                       # Number of loads inserted to the mem dependence unit. (Count)
system.cpu.MemDepUnit__1.insertedStores             0                       # Number of stores inserted to the mem dependence unit. (Count)
system.cpu.MemDepUnit__1.conflictingLoads            0                       # Number of conflicting loads. (Count)
system.cpu.MemDepUnit__1.conflictingStores            0                       # Number of conflicting stores. (Count)
system.cpu.MemDepUnit__2.insertedLoads              0                       # Number of loads inserted to the mem dependence unit. (Count)
system.cpu.MemDepUnit__2.insertedStores             0                       # Number of stores inserted to the mem dependence unit. (Count)
system.cpu.MemDepUnit__2.conflictingLoads            0                       # Number of conflicting loads. (Count)
system.cpu.MemDepUnit__2.conflictingStores            0                       # Number of conflicting stores. (Count)
system.cpu.MemDepUnit__3.insertedLoads              0                       # Number of loads inserted to the mem dependence unit. (Count)
system.cpu.MemDepUnit__3.insertedStores             0                       # Number of stores inserted to the mem dependence unit. (Count)
system.cpu.MemDepUnit__3.conflictingLoads            0                       # Number of conflicting loads. (Count)
system.cpu.MemDepUnit__3.conflictingStores            0                       # Number of conflicting stores. (Count)
system.cpu.branchPred.lookups               258665957                       # Number of BP lookups (Count)
system.cpu.branchPred.condPredicted         214083609                       # Number of conditional branches predicted (Count)
system.cpu.branchPred.condIncorrect          11152267                       # Number of conditional branches incorrect (Count)
system.cpu.branchPred.BTBLookups            144347542                       # Number of BTB lookups (Count)
system.cpu.branchPred.BTBHits               144236797                       # Number of BTB hits (Count)
system.cpu.branchPred.BTBHitRatio            0.999233                       # BTB Hit Ratio (Ratio)
system.cpu.branchPred.RASUsed                 9536018                       # Number of times the RAS was used to get a target. (Count)
system.cpu.branchPred.RASIncorrect                  8                       # Number of incorrect RAS predictions. (Count)
system.cpu.branchPred.indirectLookups            2416                       # Number of indirect predictor lookups. (Count)
system.cpu.branchPred.indirectHits               2076                       # Number of indirect target hits. (Count)
system.cpu.branchPred.indirectMisses              340                       # Number of indirect misses. (Count)
system.cpu.branchPred.indirectMispredicted           97                       # Number of mispredicted indirect branches. (Count)
system.cpu.commit.commitSquashedInsts       481738240                       # The number of squashed insts skipped by commit (Count)
system.cpu.commit.commitNonSpecStalls             539                       # The number of times commit has been forced to stall to communicate backwards (Count)
system.cpu.commit.branchMispredicts          10357155                       # The number of times a branch was mispredicted (Count)
system.cpu.commit.numCommittedDist::samples   1218008886                       # Number of insts commited each cycle (Count)
system.cpu.commit.numCommittedDist::mean     0.952466                       # Number of insts commited each cycle (Count)
system.cpu.commit.numCommittedDist::stdev     2.064605                       # Number of insts commited each cycle (Count)
system.cpu.commit.numCommittedDist::underflows            0      0.00%      0.00% # Number of insts commited each cycle (Count)
system.cpu.commit.numCommittedDist::0       881740610     72.39%     72.39% # Number of insts commited each cycle (Count)
system.cpu.commit.numCommittedDist::1       119779300      9.83%     82.23% # Number of insts commited each cycle (Count)
system.cpu.commit.numCommittedDist::2        49564140      4.07%     86.30% # Number of insts commited each cycle (Count)
system.cpu.commit.numCommittedDist::3        35381519      2.90%     89.20% # Number of insts commited each cycle (Count)
system.cpu.commit.numCommittedDist::4        31052294      2.55%     91.75% # Number of insts commited each cycle (Count)
system.cpu.commit.numCommittedDist::5        16445008      1.35%     93.10% # Number of insts commited each cycle (Count)
system.cpu.commit.numCommittedDist::6        14800626      1.22%     94.31% # Number of insts commited each cycle (Count)
system.cpu.commit.numCommittedDist::7        14140772      1.16%     95.48% # Number of insts commited each cycle (Count)
system.cpu.commit.numCommittedDist::8        55104617      4.52%    100.00% # Number of insts commited each cycle (Count)
system.cpu.commit.numCommittedDist::overflows            0      0.00%    100.00% # Number of insts commited each cycle (Count)
system.cpu.commit.numCommittedDist::min_value            0                       # Number of insts commited each cycle (Count)
system.cpu.commit.numCommittedDist::max_value            8                       # Number of insts commited each cycle (Count)
system.cpu.commit.numCommittedDist::total   1218008886                       # Number of insts commited each cycle (Count)
system.cpu.commit.instsCommitted           1000000193                       # Number of instructions committed (Count)
system.cpu.commit.opsCommitted             1160112449                       # Number of ops (including micro ops) committed (Count)
system.cpu.commit.memRefs                   581891603                       # Number of memory references committed (Count)
system.cpu.commit.loads                     366711315                       # Number of loads committed (Count)
system.cpu.commit.amos                              0                       # Number of atomic instructions committed (Count)
system.cpu.commit.membars                          79                       # Number of memory barriers committed (Count)
system.cpu.commit.branches                  142882388                       # Number of branches committed (Count)
system.cpu.commit.vectorInstructions                0                       # Number of committed Vector instructions. (Count)
system.cpu.commit.floating                          0                       # Number of committed floating point instructions. (Count)
system.cpu.commit.integer                  1016066420                       # Number of committed integer instructions. (Count)
system.cpu.commit.functionCalls               4825530                       # Number of function calls committed. (Count)
system.cpu.commit.committedInstType_0::No_OpClass            0      0.00%      0.00% # Class of committed instruction (Count)
system.cpu.commit.committedInstType_0::IntAlu    578220034     49.84%     49.84% # Class of committed instruction (Count)
system.cpu.commit.committedInstType_0::IntMult          809      0.00%     49.84% # Class of committed instruction (Count)
system.cpu.commit.committedInstType_0::IntDiv            0      0.00%     49.84% # Class of committed instruction (Count)
system.cpu.commit.committedInstType_0::FloatAdd            0      0.00%     49.84% # Class of committed instruction (Count)
system.cpu.commit.committedInstType_0::FloatCmp            0      0.00%     49.84% # Class of committed instruction (Count)
system.cpu.commit.committedInstType_0::FloatCvt            0      0.00%     49.84% # Class of committed instruction (Count)
system.cpu.commit.committedInstType_0::FloatMult            0      0.00%     49.84% # Class of committed instruction (Count)
system.cpu.commit.committedInstType_0::FloatMultAcc            0      0.00%     49.84% # Class of committed instruction (Count)
system.cpu.commit.committedInstType_0::FloatDiv            0      0.00%     49.84% # Class of committed instruction (Count)
system.cpu.commit.committedInstType_0::FloatMisc            0      0.00%     49.84% # Class of committed instruction (Count)
system.cpu.commit.committedInstType_0::FloatSqrt            0      0.00%     49.84% # Class of committed instruction (Count)
system.cpu.commit.committedInstType_0::SimdAdd            0      0.00%     49.84% # Class of committed instruction (Count)
system.cpu.commit.committedInstType_0::SimdAddAcc            0      0.00%     49.84% # Class of committed instruction (Count)
system.cpu.commit.committedInstType_0::SimdAlu            0      0.00%     49.84% # Class of committed instruction (Count)
system.cpu.commit.committedInstType_0::SimdCmp            0      0.00%     49.84% # Class of committed instruction (Count)
system.cpu.commit.committedInstType_0::SimdCvt            0      0.00%     49.84% # Class of committed instruction (Count)
system.cpu.commit.committedInstType_0::SimdMisc            0      0.00%     49.84% # Class of committed instruction (Count)
system.cpu.commit.committedInstType_0::SimdMult            0      0.00%     49.84% # Class of committed instruction (Count)
system.cpu.commit.committedInstType_0::SimdMultAcc            0      0.00%     49.84% # Class of committed instruction (Count)
system.cpu.commit.committedInstType_0::SimdShift            0      0.00%     49.84% # Class of committed instruction (Count)
system.cpu.commit.committedInstType_0::SimdShiftAcc            0      0.00%     49.84% # Class of committed instruction (Count)
system.cpu.commit.committedInstType_0::SimdDiv            0      0.00%     49.84% # Class of committed instruction (Count)
system.cpu.commit.committedInstType_0::SimdSqrt            0      0.00%     49.84% # Class of committed instruction (Count)
system.cpu.commit.committedInstType_0::SimdFloatAdd            0      0.00%     49.84% # Class of committed instruction (Count)
system.cpu.commit.committedInstType_0::SimdFloatAlu            0      0.00%     49.84% # Class of committed instruction (Count)
system.cpu.commit.committedInstType_0::SimdFloatCmp            0      0.00%     49.84% # Class of committed instruction (Count)
system.cpu.commit.committedInstType_0::SimdFloatCvt            0      0.00%     49.84% # Class of committed instruction (Count)
system.cpu.commit.committedInstType_0::SimdFloatDiv            0      0.00%     49.84% # Class of committed instruction (Count)
system.cpu.commit.committedInstType_0::SimdFloatMisc            3      0.00%     49.84% # Class of committed instruction (Count)
system.cpu.commit.committedInstType_0::SimdFloatMult            0      0.00%     49.84% # Class of committed instruction (Count)
system.cpu.commit.committedInstType_0::SimdFloatMultAcc            0      0.00%     49.84% # Class of committed instruction (Count)
system.cpu.commit.committedInstType_0::SimdFloatSqrt            0      0.00%     49.84% # Class of committed instruction (Count)
system.cpu.commit.committedInstType_0::SimdReduceAdd            0      0.00%     49.84% # Class of committed instruction (Count)
system.cpu.commit.committedInstType_0::SimdReduceAlu            0      0.00%     49.84% # Class of committed instruction (Count)
system.cpu.commit.committedInstType_0::SimdReduceCmp            0      0.00%     49.84% # Class of committed instruction (Count)
system.cpu.commit.committedInstType_0::SimdFloatReduceAdd            0      0.00%     49.84% # Class of committed instruction (Count)
system.cpu.commit.committedInstType_0::SimdFloatReduceCmp            0      0.00%     49.84% # Class of committed instruction (Count)
system.cpu.commit.committedInstType_0::SimdAes            0      0.00%     49.84% # Class of committed instruction (Count)
system.cpu.commit.committedInstType_0::SimdAesMix            0      0.00%     49.84% # Class of committed instruction (Count)
system.cpu.commit.committedInstType_0::SimdSha1Hash            0      0.00%     49.84% # Class of committed instruction (Count)
system.cpu.commit.committedInstType_0::SimdSha1Hash2            0      0.00%     49.84% # Class of committed instruction (Count)
system.cpu.commit.committedInstType_0::SimdSha256Hash            0      0.00%     49.84% # Class of committed instruction (Count)
system.cpu.commit.committedInstType_0::SimdSha256Hash2            0      0.00%     49.84% # Class of committed instruction (Count)
system.cpu.commit.committedInstType_0::SimdShaSigma2            0      0.00%     49.84% # Class of committed instruction (Count)
system.cpu.commit.committedInstType_0::SimdShaSigma3            0      0.00%     49.84% # Class of committed instruction (Count)
system.cpu.commit.committedInstType_0::SimdPredAlu            0      0.00%     49.84% # Class of committed instruction (Count)
system.cpu.commit.committedInstType_0::MemRead    366711315     31.61%     81.45% # Class of committed instruction (Count)
system.cpu.commit.committedInstType_0::MemWrite    215180288     18.55%    100.00% # Class of committed instruction (Count)
system.cpu.commit.committedInstType_0::FloatMemRead            0      0.00%    100.00% # Class of committed instruction (Count)
system.cpu.commit.committedInstType_0::FloatMemWrite            0      0.00%    100.00% # Class of committed instruction (Count)
system.cpu.commit.committedInstType_0::IprAccess            0      0.00%    100.00% # Class of committed instruction (Count)
system.cpu.commit.committedInstType_0::InstPrefetch            0      0.00%    100.00% # Class of committed instruction (Count)
system.cpu.commit.committedInstType_0::total   1160112449                       # Class of committed instruction (Count)
system.cpu.commit.commitEligibleSamples      55104617                       # number cycles where commit BW limit reached (Cycle)
system.cpu.dcache.demandHits::cpu.data      512800038                       # number of demand (read+write) hits (Count)
system.cpu.dcache.demandHits::total         512800038                       # number of demand (read+write) hits (Count)
system.cpu.dcache.overallHits::cpu.data     512815342                       # number of overall hits (Count)
system.cpu.dcache.overallHits::total        512815342                       # number of overall hits (Count)
system.cpu.dcache.demandMisses::cpu.data     88559091                       # number of demand (read+write) misses (Count)
system.cpu.dcache.demandMisses::total        88559091                       # number of demand (read+write) misses (Count)
system.cpu.dcache.overallMisses::cpu.data     96215259                       # number of overall misses (Count)
system.cpu.dcache.overallMisses::total       96215259                       # number of overall misses (Count)
system.cpu.dcache.demandMissLatency::cpu.data 3892308151224                       # number of demand (read+write) miss ticks (Tick)
system.cpu.dcache.demandMissLatency::total 3892308151224                       # number of demand (read+write) miss ticks (Tick)
system.cpu.dcache.overallMissLatency::cpu.data 3892308151224                       # number of overall miss ticks (Tick)
system.cpu.dcache.overallMissLatency::total 3892308151224                       # number of overall miss ticks (Tick)
system.cpu.dcache.demandAccesses::cpu.data    601359129                       # number of demand (read+write) accesses (Count)
system.cpu.dcache.demandAccesses::total     601359129                       # number of demand (read+write) accesses (Count)
system.cpu.dcache.overallAccesses::cpu.data    609030601                       # number of overall (read+write) accesses (Count)
system.cpu.dcache.overallAccesses::total    609030601                       # number of overall (read+write) accesses (Count)
system.cpu.dcache.demandMissRate::cpu.data     0.147265                       # miss rate for demand accesses (Ratio)
system.cpu.dcache.demandMissRate::total      0.147265                       # miss rate for demand accesses (Ratio)
system.cpu.dcache.overallMissRate::cpu.data     0.157981                       # miss rate for overall accesses (Ratio)
system.cpu.dcache.overallMissRate::total     0.157981                       # miss rate for overall accesses (Ratio)
system.cpu.dcache.demandAvgMissLatency::cpu.data 43951.536847                       # average overall miss latency in ticks ((Tick/Count))
system.cpu.dcache.demandAvgMissLatency::total 43951.536847                       # average overall miss latency in ticks ((Tick/Count))
system.cpu.dcache.overallAvgMissLatency::cpu.data 40454.166955                       # average overall miss latency ((Tick/Count))
system.cpu.dcache.overallAvgMissLatency::total 40454.166955                       # average overall miss latency ((Tick/Count))
system.cpu.dcache.blockedCycles::no_mshrs    480605466                       # number of cycles access was blocked (Cycle)
system.cpu.dcache.blockedCycles::no_targets        73577                       # number of cycles access was blocked (Cycle)
system.cpu.dcache.blockedCauses::no_mshrs      9761011                       # number of times access was blocked (Count)
system.cpu.dcache.blockedCauses::no_targets          816                       # number of times access was blocked (Count)
system.cpu.dcache.avgBlocked::no_mshrs      49.237263                       # average number of cycles each access was blocked ((Cycle/Count))
system.cpu.dcache.avgBlocked::no_targets    90.167892                       # average number of cycles each access was blocked ((Cycle/Count))
system.cpu.dcache.writebacks::writebacks     10703461                       # number of writebacks (Count)
system.cpu.dcache.writebacks::total          10703461                       # number of writebacks (Count)
system.cpu.dcache.demandMshrHits::cpu.data     69982893                       # number of demand (read+write) MSHR hits (Count)
system.cpu.dcache.demandMshrHits::total      69982893                       # number of demand (read+write) MSHR hits (Count)
system.cpu.dcache.overallMshrHits::cpu.data     69982893                       # number of overall MSHR hits (Count)
system.cpu.dcache.overallMshrHits::total     69982893                       # number of overall MSHR hits (Count)
system.cpu.dcache.demandMshrMisses::cpu.data     18576198                       # number of demand (read+write) MSHR misses (Count)
system.cpu.dcache.demandMshrMisses::total     18576198                       # number of demand (read+write) MSHR misses (Count)
system.cpu.dcache.overallMshrMisses::cpu.data     22404988                       # number of overall MSHR misses (Count)
system.cpu.dcache.overallMshrMisses::total     22404988                       # number of overall MSHR misses (Count)
system.cpu.dcache.demandMshrMissLatency::cpu.data 655938280587                       # number of demand (read+write) MSHR miss ticks (Tick)
system.cpu.dcache.demandMshrMissLatency::total 655938280587                       # number of demand (read+write) MSHR miss ticks (Tick)
system.cpu.dcache.overallMshrMissLatency::cpu.data 962030839807                       # number of overall MSHR miss ticks (Tick)
system.cpu.dcache.overallMshrMissLatency::total 962030839807                       # number of overall MSHR miss ticks (Tick)
system.cpu.dcache.demandMshrMissRate::cpu.data     0.030890                       # mshr miss ratio for demand accesses (Ratio)
system.cpu.dcache.demandMshrMissRate::total     0.030890                       # mshr miss ratio for demand accesses (Ratio)
system.cpu.dcache.overallMshrMissRate::cpu.data     0.036788                       # mshr miss ratio for overall accesses (Ratio)
system.cpu.dcache.overallMshrMissRate::total     0.036788                       # mshr miss ratio for overall accesses (Ratio)
system.cpu.dcache.demandAvgMshrMissLatency::cpu.data 35310.685243                       # average overall mshr miss latency ((Tick/Count))
system.cpu.dcache.demandAvgMshrMissLatency::total 35310.685243                       # average overall mshr miss latency ((Tick/Count))
system.cpu.dcache.overallAvgMshrMissLatency::cpu.data 42938.243922                       # average overall mshr miss latency ((Tick/Count))
system.cpu.dcache.overallAvgMshrMissLatency::total 42938.243922                       # average overall mshr miss latency ((Tick/Count))
system.cpu.dcache.replacements               22404478                       # number of replacements (Count)
system.cpu.dcache.LoadLockedReq.hits::cpu.data           37                       # number of LoadLockedReq hits (Count)
system.cpu.dcache.LoadLockedReq.hits::total           37                       # number of LoadLockedReq hits (Count)
system.cpu.dcache.LoadLockedReq.misses::cpu.data            2                       # number of LoadLockedReq misses (Count)
system.cpu.dcache.LoadLockedReq.misses::total            2                       # number of LoadLockedReq misses (Count)
system.cpu.dcache.LoadLockedReq.missLatency::cpu.data       131720                       # number of LoadLockedReq miss ticks (Tick)
system.cpu.dcache.LoadLockedReq.missLatency::total       131720                       # number of LoadLockedReq miss ticks (Tick)
system.cpu.dcache.LoadLockedReq.accesses::cpu.data           39                       # number of LoadLockedReq accesses(hits+misses) (Count)
system.cpu.dcache.LoadLockedReq.accesses::total           39                       # number of LoadLockedReq accesses(hits+misses) (Count)
system.cpu.dcache.LoadLockedReq.missRate::cpu.data     0.051282                       # miss rate for LoadLockedReq accesses (Ratio)
system.cpu.dcache.LoadLockedReq.missRate::total     0.051282                       # miss rate for LoadLockedReq accesses (Ratio)
system.cpu.dcache.LoadLockedReq.avgMissLatency::cpu.data        65860                       # average LoadLockedReq miss latency ((Tick/Count))
system.cpu.dcache.LoadLockedReq.avgMissLatency::total        65860                       # average LoadLockedReq miss latency ((Tick/Count))
system.cpu.dcache.LoadLockedReq.mshrMisses::cpu.data            2                       # number of LoadLockedReq MSHR misses (Count)
system.cpu.dcache.LoadLockedReq.mshrMisses::total            2                       # number of LoadLockedReq MSHR misses (Count)
system.cpu.dcache.LoadLockedReq.mshrMissLatency::cpu.data       129850                       # number of LoadLockedReq MSHR miss ticks (Tick)
system.cpu.dcache.LoadLockedReq.mshrMissLatency::total       129850                       # number of LoadLockedReq MSHR miss ticks (Tick)
system.cpu.dcache.LoadLockedReq.mshrMissRate::cpu.data     0.051282                       # mshr miss rate for LoadLockedReq accesses (Ratio)
system.cpu.dcache.LoadLockedReq.mshrMissRate::total     0.051282                       # mshr miss rate for LoadLockedReq accesses (Ratio)
system.cpu.dcache.LoadLockedReq.avgMshrMissLatency::cpu.data        64925                       # average LoadLockedReq mshr miss latency ((Tick/Count))
system.cpu.dcache.LoadLockedReq.avgMshrMissLatency::total        64925                       # average LoadLockedReq mshr miss latency ((Tick/Count))
system.cpu.dcache.ReadReq.hits::cpu.data    365914143                       # number of ReadReq hits (Count)
system.cpu.dcache.ReadReq.hits::total       365914143                       # number of ReadReq hits (Count)
system.cpu.dcache.ReadReq.misses::cpu.data     22194695                       # number of ReadReq misses (Count)
system.cpu.dcache.ReadReq.misses::total      22194695                       # number of ReadReq misses (Count)
system.cpu.dcache.ReadReq.missLatency::cpu.data 430039085950                       # number of ReadReq miss ticks (Tick)
system.cpu.dcache.ReadReq.missLatency::total 430039085950                       # number of ReadReq miss ticks (Tick)
system.cpu.dcache.ReadReq.accesses::cpu.data    388108838                       # number of ReadReq accesses(hits+misses) (Count)
system.cpu.dcache.ReadReq.accesses::total    388108838                       # number of ReadReq accesses(hits+misses) (Count)
system.cpu.dcache.ReadReq.missRate::cpu.data     0.057187                       # miss rate for ReadReq accesses (Ratio)
system.cpu.dcache.ReadReq.missRate::total     0.057187                       # miss rate for ReadReq accesses (Ratio)
system.cpu.dcache.ReadReq.avgMissLatency::cpu.data 19375.760106                       # average ReadReq miss latency ((Tick/Count))
system.cpu.dcache.ReadReq.avgMissLatency::total 19375.760106                       # average ReadReq miss latency ((Tick/Count))
system.cpu.dcache.ReadReq.mshrHits::cpu.data     11185568                       # number of ReadReq MSHR hits (Count)
system.cpu.dcache.ReadReq.mshrHits::total     11185568                       # number of ReadReq MSHR hits (Count)
system.cpu.dcache.ReadReq.mshrMisses::cpu.data     11009127                       # number of ReadReq MSHR misses (Count)
system.cpu.dcache.ReadReq.mshrMisses::total     11009127                       # number of ReadReq MSHR misses (Count)
system.cpu.dcache.ReadReq.mshrMissLatency::cpu.data 182425079110                       # number of ReadReq MSHR miss ticks (Tick)
system.cpu.dcache.ReadReq.mshrMissLatency::total 182425079110                       # number of ReadReq MSHR miss ticks (Tick)
system.cpu.dcache.ReadReq.mshrMissRate::cpu.data     0.028366                       # mshr miss rate for ReadReq accesses (Ratio)
system.cpu.dcache.ReadReq.mshrMissRate::total     0.028366                       # mshr miss rate for ReadReq accesses (Ratio)
system.cpu.dcache.ReadReq.avgMshrMissLatency::cpu.data 16570.349230                       # average ReadReq mshr miss latency ((Tick/Count))
system.cpu.dcache.ReadReq.avgMshrMissLatency::total 16570.349230                       # average ReadReq mshr miss latency ((Tick/Count))
system.cpu.dcache.SoftPFReq.hits::cpu.data        15304                       # number of SoftPFReq hits (Count)
system.cpu.dcache.SoftPFReq.hits::total         15304                       # number of SoftPFReq hits (Count)
system.cpu.dcache.SoftPFReq.misses::cpu.data      7656168                       # number of SoftPFReq misses (Count)
system.cpu.dcache.SoftPFReq.misses::total      7656168                       # number of SoftPFReq misses (Count)
system.cpu.dcache.SoftPFReq.accesses::cpu.data      7671472                       # number of SoftPFReq accesses(hits+misses) (Count)
system.cpu.dcache.SoftPFReq.accesses::total      7671472                       # number of SoftPFReq accesses(hits+misses) (Count)
system.cpu.dcache.SoftPFReq.missRate::cpu.data     0.998005                       # miss rate for SoftPFReq accesses (Ratio)
system.cpu.dcache.SoftPFReq.missRate::total     0.998005                       # miss rate for SoftPFReq accesses (Ratio)
system.cpu.dcache.SoftPFReq.mshrMisses::cpu.data      3828790                       # number of SoftPFReq MSHR misses (Count)
system.cpu.dcache.SoftPFReq.mshrMisses::total      3828790                       # number of SoftPFReq MSHR misses (Count)
system.cpu.dcache.SoftPFReq.mshrMissLatency::cpu.data 306092559220                       # number of SoftPFReq MSHR miss ticks (Tick)
system.cpu.dcache.SoftPFReq.mshrMissLatency::total 306092559220                       # number of SoftPFReq MSHR miss ticks (Tick)
system.cpu.dcache.SoftPFReq.mshrMissRate::cpu.data     0.499095                       # mshr miss rate for SoftPFReq accesses (Ratio)
system.cpu.dcache.SoftPFReq.mshrMissRate::total     0.499095                       # mshr miss rate for SoftPFReq accesses (Ratio)
system.cpu.dcache.SoftPFReq.avgMshrMissLatency::cpu.data 79944.985027                       # average SoftPFReq mshr miss latency ((Tick/Count))
system.cpu.dcache.SoftPFReq.avgMshrMissLatency::total 79944.985027                       # average SoftPFReq mshr miss latency ((Tick/Count))
system.cpu.dcache.StoreCondReq.hits::cpu.data           39                       # number of StoreCondReq hits (Count)
system.cpu.dcache.StoreCondReq.hits::total           39                       # number of StoreCondReq hits (Count)
system.cpu.dcache.StoreCondReq.accesses::cpu.data           39                       # number of StoreCondReq accesses(hits+misses) (Count)
system.cpu.dcache.StoreCondReq.accesses::total           39                       # number of StoreCondReq accesses(hits+misses) (Count)
system.cpu.dcache.WriteReq.hits::cpu.data    146885895                       # number of WriteReq hits (Count)
system.cpu.dcache.WriteReq.hits::total      146885895                       # number of WriteReq hits (Count)
system.cpu.dcache.WriteReq.misses::cpu.data     66364396                       # number of WriteReq misses (Count)
system.cpu.dcache.WriteReq.misses::total     66364396                       # number of WriteReq misses (Count)
system.cpu.dcache.WriteReq.missLatency::cpu.data 3462269065274                       # number of WriteReq miss ticks (Tick)
system.cpu.dcache.WriteReq.missLatency::total 3462269065274                       # number of WriteReq miss ticks (Tick)
system.cpu.dcache.WriteReq.accesses::cpu.data    213250291                       # number of WriteReq accesses(hits+misses) (Count)
system.cpu.dcache.WriteReq.accesses::total    213250291                       # number of WriteReq accesses(hits+misses) (Count)
system.cpu.dcache.WriteReq.missRate::cpu.data     0.311204                       # miss rate for WriteReq accesses (Ratio)
system.cpu.dcache.WriteReq.missRate::total     0.311204                       # miss rate for WriteReq accesses (Ratio)
system.cpu.dcache.WriteReq.avgMissLatency::cpu.data 52170.580521                       # average WriteReq miss latency ((Tick/Count))
system.cpu.dcache.WriteReq.avgMissLatency::total 52170.580521                       # average WriteReq miss latency ((Tick/Count))
system.cpu.dcache.WriteReq.mshrHits::cpu.data     58797325                       # number of WriteReq MSHR hits (Count)
system.cpu.dcache.WriteReq.mshrHits::total     58797325                       # number of WriteReq MSHR hits (Count)
system.cpu.dcache.WriteReq.mshrMisses::cpu.data      7567071                       # number of WriteReq MSHR misses (Count)
system.cpu.dcache.WriteReq.mshrMisses::total      7567071                       # number of WriteReq MSHR misses (Count)
system.cpu.dcache.WriteReq.mshrMissLatency::cpu.data 473513201477                       # number of WriteReq MSHR miss ticks (Tick)
system.cpu.dcache.WriteReq.mshrMissLatency::total 473513201477                       # number of WriteReq MSHR miss ticks (Tick)
system.cpu.dcache.WriteReq.mshrMissRate::cpu.data     0.035484                       # mshr miss rate for WriteReq accesses (Ratio)
system.cpu.dcache.WriteReq.mshrMissRate::total     0.035484                       # mshr miss rate for WriteReq accesses (Ratio)
system.cpu.dcache.WriteReq.avgMshrMissLatency::cpu.data 62575.493408                       # average WriteReq mshr miss latency ((Tick/Count))
system.cpu.dcache.WriteReq.avgMshrMissLatency::total 62575.493408                       # average WriteReq mshr miss latency ((Tick/Count))
system.cpu.dcache.power_state.pwrStateResidencyTicks::UNDEFINED 475276690150                       # Cumulative time (in ticks) in various power states (Tick)
system.cpu.dcache.tags.tagsInUse           492.852277                       # Average ticks per tags in use ((Tick/Count))
system.cpu.dcache.tags.totalRefs            535220408                       # Total number of references to valid blocks. (Count)
system.cpu.dcache.tags.sampledRefs           22404990                       # Sample count of references to valid blocks. (Count)
system.cpu.dcache.tags.avgRefs              23.888447                       # Average number of references to valid blocks. ((Count/Count))
system.cpu.dcache.tags.warmupTick              149500                       # The tick when the warmup percentage was hit. (Tick)
system.cpu.dcache.tags.occupancies::cpu.data   492.852277                       # Average occupied blocks per tick, per requestor ((Count/Tick))
system.cpu.dcache.tags.avgOccs::cpu.data     0.962602                       # Average percentage of cache occupancy ((Ratio/Tick))
system.cpu.dcache.tags.avgOccs::total        0.962602                       # Average percentage of cache occupancy ((Ratio/Tick))
system.cpu.dcache.tags.occupanciesTaskId::1024          512                       # Occupied blocks per task id (Count)
system.cpu.dcache.tags.ageTaskId_1024::0          164                       # Occupied blocks per task id, per block age (Count)
system.cpu.dcache.tags.ageTaskId_1024::1          345                       # Occupied blocks per task id, per block age (Count)
system.cpu.dcache.tags.ageTaskId_1024::2            3                       # Occupied blocks per task id, per block age (Count)
system.cpu.dcache.tags.ratioOccsTaskId::1024            1                       # Ratio of occupied blocks and all blocks, per task id (Ratio)
system.cpu.dcache.tags.tagAccesses         2458527706                       # Number of tag accesses (Count)
system.cpu.dcache.tags.dataAccesses        2458527706                       # Number of data accesses (Count)
system.cpu.dcache.tags.power_state.pwrStateResidencyTicks::UNDEFINED 475276690150                       # Cumulative time (in ticks) in various power states (Tick)
system.cpu.decode.idleCycles                122400595                       # Number of cycles decode is idle (Cycle)
system.cpu.decode.blockedCycles             879105735                       # Number of cycles decode is blocked (Cycle)
system.cpu.decode.runCycles                 214126016                       # Number of cycles decode is running (Cycle)
system.cpu.decode.unblockCycles              58034452                       # Number of cycles decode is unblocking (Cycle)
system.cpu.decode.squashCycles               10792406                       # Number of cycles decode is squashing (Cycle)
system.cpu.decode.branchResolved            132616482                       # Number of times decode resolved a branch (Count)
system.cpu.decode.branchMispred                815763                       # Number of times decode detected a branch misprediction (Count)
system.cpu.decode.decodedInsts             1765063504                       # Number of instructions handled by decode (Count)
system.cpu.decode.squashedInsts               2860058                       # Number of squashed instructions handled by decode (Count)
system.cpu.fetch.icacheStallCycles          175132579                       # Number of cycles fetch is stalled on an Icache miss (Cycle)
system.cpu.fetch.insts                     1661546582                       # Number of instructions fetch has processed (Count)
system.cpu.fetch.branches                   258665957                       # Number of branches that fetch encountered (Count)
system.cpu.fetch.predictedBranches          153774891                       # Number of branches that fetch has predicted taken (Count)
system.cpu.fetch.cycles                    1097739041                       # Number of cycles fetch has run and was not squashing or blocked (Cycle)
system.cpu.fetch.squashCycles                23175038                       # Number of cycles fetch has spent squashing (Cycle)
system.cpu.fetch.miscStallCycles                    4                       # Number of cycles fetch has spent waiting on interrupts, or bad addresses, or out of MSHRs (Cycle)
system.cpu.fetch.pendingTrapStallCycles            12                       # Number of stall cycles due to pending traps (Cycle)
system.cpu.fetch.icacheWaitRetryStallCycles           49                       # Number of stall cycles due to full MSHR (Cycle)
system.cpu.fetch.cacheLines                 169130666                       # Number of cache lines fetched (Count)
system.cpu.fetch.icacheSquashes               3220351                       # Number of outstanding Icache misses that were squashed (Count)
system.cpu.fetch.nisnDist::samples         1284459204                       # Number of instructions fetched each cycle (Total) (Count)
system.cpu.fetch.nisnDist::mean              1.469636                       # Number of instructions fetched each cycle (Total) (Count)
system.cpu.fetch.nisnDist::stdev             2.731623                       # Number of instructions fetched each cycle (Total) (Count)
system.cpu.fetch.nisnDist::underflows               0      0.00%      0.00% # Number of instructions fetched each cycle (Total) (Count)
system.cpu.fetch.nisnDist::0                940886297     73.25%     73.25% # Number of instructions fetched each cycle (Total) (Count)
system.cpu.fetch.nisnDist::1                 22254266      1.73%     74.98% # Number of instructions fetched each cycle (Total) (Count)
system.cpu.fetch.nisnDist::2                 36868717      2.87%     77.85% # Number of instructions fetched each cycle (Total) (Count)
system.cpu.fetch.nisnDist::3                 22980675      1.79%     79.64% # Number of instructions fetched each cycle (Total) (Count)
system.cpu.fetch.nisnDist::4                 41616905      3.24%     82.88% # Number of instructions fetched each cycle (Total) (Count)
system.cpu.fetch.nisnDist::5                 36830464      2.87%     85.75% # Number of instructions fetched each cycle (Total) (Count)
system.cpu.fetch.nisnDist::6                 31288288      2.44%     88.19% # Number of instructions fetched each cycle (Total) (Count)
system.cpu.fetch.nisnDist::7                 29464537      2.29%     90.48% # Number of instructions fetched each cycle (Total) (Count)
system.cpu.fetch.nisnDist::8                122269055      9.52%    100.00% # Number of instructions fetched each cycle (Total) (Count)
system.cpu.fetch.nisnDist::overflows                0      0.00%    100.00% # Number of instructions fetched each cycle (Total) (Count)
system.cpu.fetch.nisnDist::min_value                0                       # Number of instructions fetched each cycle (Total) (Count)
system.cpu.fetch.nisnDist::max_value                8                       # Number of instructions fetched each cycle (Total) (Count)
system.cpu.fetch.nisnDist::total           1284459204                       # Number of instructions fetched each cycle (Total) (Count)
system.cpu.fetch.branchRate                  0.201370                       # Number of branch fetches per cycle (Ratio)
system.cpu.fetch.rate                        1.293504                       # Number of inst fetches per cycle ((Count/Cycle))
system.cpu.icache.demandHits::cpu.inst      169129444                       # number of demand (read+write) hits (Count)
system.cpu.icache.demandHits::total         169129444                       # number of demand (read+write) hits (Count)
system.cpu.icache.overallHits::cpu.inst     169129444                       # number of overall hits (Count)
system.cpu.icache.overallHits::total        169129444                       # number of overall hits (Count)
system.cpu.icache.demandMisses::cpu.inst         1222                       # number of demand (read+write) misses (Count)
system.cpu.icache.demandMisses::total            1222                       # number of demand (read+write) misses (Count)
system.cpu.icache.overallMisses::cpu.inst         1222                       # number of overall misses (Count)
system.cpu.icache.overallMisses::total           1222                       # number of overall misses (Count)
system.cpu.icache.demandMissLatency::cpu.inst     81539899                       # number of demand (read+write) miss ticks (Tick)
system.cpu.icache.demandMissLatency::total     81539899                       # number of demand (read+write) miss ticks (Tick)
system.cpu.icache.overallMissLatency::cpu.inst     81539899                       # number of overall miss ticks (Tick)
system.cpu.icache.overallMissLatency::total     81539899                       # number of overall miss ticks (Tick)
system.cpu.icache.demandAccesses::cpu.inst    169130666                       # number of demand (read+write) accesses (Count)
system.cpu.icache.demandAccesses::total     169130666                       # number of demand (read+write) accesses (Count)
system.cpu.icache.overallAccesses::cpu.inst    169130666                       # number of overall (read+write) accesses (Count)
system.cpu.icache.overallAccesses::total    169130666                       # number of overall (read+write) accesses (Count)
system.cpu.icache.demandMissRate::cpu.inst     0.000007                       # miss rate for demand accesses (Ratio)
system.cpu.icache.demandMissRate::total      0.000007                       # miss rate for demand accesses (Ratio)
system.cpu.icache.overallMissRate::cpu.inst     0.000007                       # miss rate for overall accesses (Ratio)
system.cpu.icache.overallMissRate::total     0.000007                       # miss rate for overall accesses (Ratio)
system.cpu.icache.demandAvgMissLatency::cpu.inst 66726.594926                       # average overall miss latency in ticks ((Tick/Count))
system.cpu.icache.demandAvgMissLatency::total 66726.594926                       # average overall miss latency in ticks ((Tick/Count))
system.cpu.icache.overallAvgMissLatency::cpu.inst 66726.594926                       # average overall miss latency ((Tick/Count))
system.cpu.icache.overallAvgMissLatency::total 66726.594926                       # average overall miss latency ((Tick/Count))
system.cpu.icache.blockedCycles::no_mshrs          787                       # number of cycles access was blocked (Cycle)
system.cpu.icache.blockedCycles::no_targets            0                       # number of cycles access was blocked (Cycle)
system.cpu.icache.blockedCauses::no_mshrs            8                       # number of times access was blocked (Count)
system.cpu.icache.blockedCauses::no_targets            0                       # number of times access was blocked (Count)
system.cpu.icache.avgBlocked::no_mshrs      98.375000                       # average number of cycles each access was blocked ((Cycle/Count))
system.cpu.icache.avgBlocked::no_targets          nan                       # average number of cycles each access was blocked ((Cycle/Count))
system.cpu.icache.demandMshrHits::cpu.inst          477                       # number of demand (read+write) MSHR hits (Count)
system.cpu.icache.demandMshrHits::total           477                       # number of demand (read+write) MSHR hits (Count)
system.cpu.icache.overallMshrHits::cpu.inst          477                       # number of overall MSHR hits (Count)
system.cpu.icache.overallMshrHits::total          477                       # number of overall MSHR hits (Count)
system.cpu.icache.demandMshrMisses::cpu.inst          745                       # number of demand (read+write) MSHR misses (Count)
system.cpu.icache.demandMshrMisses::total          745                       # number of demand (read+write) MSHR misses (Count)
system.cpu.icache.overallMshrMisses::cpu.inst          745                       # number of overall MSHR misses (Count)
system.cpu.icache.overallMshrMisses::total          745                       # number of overall MSHR misses (Count)
system.cpu.icache.demandMshrMissLatency::cpu.inst     54413399                       # number of demand (read+write) MSHR miss ticks (Tick)
system.cpu.icache.demandMshrMissLatency::total     54413399                       # number of demand (read+write) MSHR miss ticks (Tick)
system.cpu.icache.overallMshrMissLatency::cpu.inst     54413399                       # number of overall MSHR miss ticks (Tick)
system.cpu.icache.overallMshrMissLatency::total     54413399                       # number of overall MSHR miss ticks (Tick)
system.cpu.icache.demandMshrMissRate::cpu.inst     0.000004                       # mshr miss ratio for demand accesses (Ratio)
system.cpu.icache.demandMshrMissRate::total     0.000004                       # mshr miss ratio for demand accesses (Ratio)
system.cpu.icache.overallMshrMissRate::cpu.inst     0.000004                       # mshr miss ratio for overall accesses (Ratio)
system.cpu.icache.overallMshrMissRate::total     0.000004                       # mshr miss ratio for overall accesses (Ratio)
system.cpu.icache.demandAvgMshrMissLatency::cpu.inst 73038.119463                       # average overall mshr miss latency ((Tick/Count))
system.cpu.icache.demandAvgMshrMissLatency::total 73038.119463                       # average overall mshr miss latency ((Tick/Count))
system.cpu.icache.overallAvgMshrMissLatency::cpu.inst 73038.119463                       # average overall mshr miss latency ((Tick/Count))
system.cpu.icache.overallAvgMshrMissLatency::total 73038.119463                       # average overall mshr miss latency ((Tick/Count))
system.cpu.icache.replacements                    268                       # number of replacements (Count)
system.cpu.icache.ReadReq.hits::cpu.inst    169129444                       # number of ReadReq hits (Count)
system.cpu.icache.ReadReq.hits::total       169129444                       # number of ReadReq hits (Count)
system.cpu.icache.ReadReq.misses::cpu.inst         1222                       # number of ReadReq misses (Count)
system.cpu.icache.ReadReq.misses::total          1222                       # number of ReadReq misses (Count)
system.cpu.icache.ReadReq.missLatency::cpu.inst     81539899                       # number of ReadReq miss ticks (Tick)
system.cpu.icache.ReadReq.missLatency::total     81539899                       # number of ReadReq miss ticks (Tick)
system.cpu.icache.ReadReq.accesses::cpu.inst    169130666                       # number of ReadReq accesses(hits+misses) (Count)
system.cpu.icache.ReadReq.accesses::total    169130666                       # number of ReadReq accesses(hits+misses) (Count)
system.cpu.icache.ReadReq.missRate::cpu.inst     0.000007                       # miss rate for ReadReq accesses (Ratio)
system.cpu.icache.ReadReq.missRate::total     0.000007                       # miss rate for ReadReq accesses (Ratio)
system.cpu.icache.ReadReq.avgMissLatency::cpu.inst 66726.594926                       # average ReadReq miss latency ((Tick/Count))
system.cpu.icache.ReadReq.avgMissLatency::total 66726.594926                       # average ReadReq miss latency ((Tick/Count))
system.cpu.icache.ReadReq.mshrHits::cpu.inst          477                       # number of ReadReq MSHR hits (Count)
system.cpu.icache.ReadReq.mshrHits::total          477                       # number of ReadReq MSHR hits (Count)
system.cpu.icache.ReadReq.mshrMisses::cpu.inst          745                       # number of ReadReq MSHR misses (Count)
system.cpu.icache.ReadReq.mshrMisses::total          745                       # number of ReadReq MSHR misses (Count)
system.cpu.icache.ReadReq.mshrMissLatency::cpu.inst     54413399                       # number of ReadReq MSHR miss ticks (Tick)
system.cpu.icache.ReadReq.mshrMissLatency::total     54413399                       # number of ReadReq MSHR miss ticks (Tick)
system.cpu.icache.ReadReq.mshrMissRate::cpu.inst     0.000004                       # mshr miss rate for ReadReq accesses (Ratio)
system.cpu.icache.ReadReq.mshrMissRate::total     0.000004                       # mshr miss rate for ReadReq accesses (Ratio)
system.cpu.icache.ReadReq.avgMshrMissLatency::cpu.inst 73038.119463                       # average ReadReq mshr miss latency ((Tick/Count))
system.cpu.icache.ReadReq.avgMshrMissLatency::total 73038.119463                       # average ReadReq mshr miss latency ((Tick/Count))
system.cpu.icache.power_state.pwrStateResidencyTicks::UNDEFINED 475276690150                       # Cumulative time (in ticks) in various power states (Tick)
system.cpu.icache.tags.tagsInUse           380.546043                       # Average ticks per tags in use ((Tick/Count))
system.cpu.icache.tags.totalRefs            169130189                       # Total number of references to valid blocks. (Count)
system.cpu.icache.tags.sampledRefs                745                       # Sample count of references to valid blocks. (Count)
system.cpu.icache.tags.avgRefs           227020.387919                       # Average number of references to valid blocks. ((Count/Count))
system.cpu.icache.tags.warmupTick               82000                       # The tick when the warmup percentage was hit. (Tick)
system.cpu.icache.tags.occupancies::cpu.inst   380.546043                       # Average occupied blocks per tick, per requestor ((Count/Tick))
system.cpu.icache.tags.avgOccs::cpu.inst     0.743254                       # Average percentage of cache occupancy ((Ratio/Tick))
system.cpu.icache.tags.avgOccs::total        0.743254                       # Average percentage of cache occupancy ((Ratio/Tick))
system.cpu.icache.tags.occupanciesTaskId::1024          477                       # Occupied blocks per task id (Count)
system.cpu.icache.tags.ageTaskId_1024::4          477                       # Occupied blocks per task id, per block age (Count)
system.cpu.icache.tags.ratioOccsTaskId::1024     0.931641                       # Ratio of occupied blocks and all blocks, per task id (Ratio)
system.cpu.icache.tags.tagAccesses          676523409                       # Number of tag accesses (Count)
system.cpu.icache.tags.dataAccesses         676523409                       # Number of data accesses (Count)
system.cpu.icache.tags.power_state.pwrStateResidencyTicks::UNDEFINED 475276690150                       # Cumulative time (in ticks) in various power states (Tick)
system.cpu.iew.idleCycles                           0                       # Number of cycles IEW is idle (Cycle)
system.cpu.iew.squashCycles                  10792406                       # Number of cycles IEW is squashing (Cycle)
system.cpu.iew.blockCycles                   95219946                       # Number of cycles IEW is blocking (Cycle)
system.cpu.iew.unblockCycles                202298795                       # Number of cycles IEW is unblocking (Cycle)
system.cpu.iew.dispatchedInsts             1642331965                       # Number of instructions dispatched to IQ (Count)
system.cpu.iew.dispSquashedInsts              1937664                       # Number of squashed instructions skipped by dispatch (Count)
system.cpu.iew.dispLoadInsts                506126123                       # Number of dispatched load instructions (Count)
system.cpu.iew.dispStoreInsts               277672116                       # Number of dispatched store instructions (Count)
system.cpu.iew.dispNonSpecInsts                  3618                       # Number of dispatched non-speculative instructions (Count)
system.cpu.iew.iqFullEvents                   1489369                       # Number of times the IQ has become full, causing a stall (Count)
system.cpu.iew.lsqFullEvents                198933866                       # Number of times the LSQ has become full, causing a stall (Count)
system.cpu.iew.memOrderViolationEvents         304366                       # Number of memory order violations (Count)
system.cpu.iew.predictedTakenIncorrect        5876811                       # Number of branches that were predicted taken incorrectly (Count)
system.cpu.iew.predictedNotTakenIncorrect      6817713                       # Number of branches that were predicted not taken incorrectly (Count)
system.cpu.iew.branchMispredicts             12694524                       # Number of branch mispredicts detected at execute (Count)
system.cpu.iew.instsToCommit               1395586384                       # Cumulative count of insts sent to commit (Count)
system.cpu.iew.writebackCount              1379760112                       # Cumulative count of insts written-back (Count)
system.cpu.iew.producerInst                 792543531                       # Number of instructions producing a value (Count)
system.cpu.iew.consumerInst                1224598354                       # Number of instructions consuming a value (Count)
system.cpu.iew.wbRate                        1.074135                       # Insts written-back per cycle ((Count/Cycle))
system.cpu.iew.wbFanout                      0.647187                       # Average fanout of values written-back ((Count/Count))
system.cpu.lsq0.forwLoads                    47390329                       # Number of loads that had data forwarded from stores (Count)
system.cpu.lsq0.squashedLoads               139414778                       # Number of loads squashed (Count)
system.cpu.lsq0.ignoredResponses               150709                       # Number of memory responses ignored because the instruction is squashed (Count)
system.cpu.lsq0.memOrderViolation              304366                       # Number of memory ordering violations (Count)
system.cpu.lsq0.squashedStores               62491814                       # Number of stores squashed (Count)
system.cpu.lsq0.rescheduledLoads              7973339                       # Number of loads that were rescheduled (Count)
system.cpu.lsq0.blockedByCache                8876838                       # Number of times an access to memory failed due to the cache being blocked (Count)
system.cpu.lsq0.loadToUse::samples          359040299                       # Distribution of cycle latency between the first time a load is issued and its completion (Unspecified)
system.cpu.lsq0.loadToUse::mean             11.626747                       # Distribution of cycle latency between the first time a load is issued and its completion (Unspecified)
system.cpu.lsq0.loadToUse::stdev            56.715078                       # Distribution of cycle latency between the first time a load is issued and its completion (Unspecified)
system.cpu.lsq0.loadToUse::0-9              324780478     90.46%     90.46% # Distribution of cycle latency between the first time a load is issued and its completion (Unspecified)
system.cpu.lsq0.loadToUse::10-19              7428159      2.07%     92.53% # Distribution of cycle latency between the first time a load is issued and its completion (Unspecified)
system.cpu.lsq0.loadToUse::20-29              1911902      0.53%     93.06% # Distribution of cycle latency between the first time a load is issued and its completion (Unspecified)
system.cpu.lsq0.loadToUse::30-39             10398292      2.90%     95.96% # Distribution of cycle latency between the first time a load is issued and its completion (Unspecified)
system.cpu.lsq0.loadToUse::40-49              1607507      0.45%     96.40% # Distribution of cycle latency between the first time a load is issued and its completion (Unspecified)
system.cpu.lsq0.loadToUse::50-59               301913      0.08%     96.49% # Distribution of cycle latency between the first time a load is issued and its completion (Unspecified)
[...]
system.mem_ctrl.dram.perBankRdBursts::8        298422                       # Per bank write bursts (Count)
system.mem_ctrl.dram.perBankRdBursts::9        297292                       # Per bank write bursts (Count)
system.mem_ctrl.dram.perBankRdBursts::10       296955                       # Per bank write bursts (Count)
system.mem_ctrl.dram.perBankRdBursts::11       297327                       # Per bank write bursts (Count)
system.mem_ctrl.dram.perBankRdBursts::12       296043                       # Per bank write bursts (Count)
system.mem_ctrl.dram.perBankRdBursts::13       297008                       # Per bank write bursts (Count)
system.mem_ctrl.dram.perBankRdBursts::14       296240                       # Per bank write bursts (Count)
system.mem_ctrl.dram.perBankRdBursts::15       298120                       # Per bank write bursts (Count)
system.mem_ctrl.dram.perBankRdBursts::16       297488                       # Per bank write bursts (Count)
system.mem_ctrl.dram.perBankRdBursts::17       294924                       # Per bank write bursts (Count)
system.mem_ctrl.dram.perBankRdBursts::18       296964                       # Per bank write bursts (Count)
system.mem_ctrl.dram.perBankRdBursts::19       298951                       # Per bank write bursts (Count)
system.mem_ctrl.dram.perBankRdBursts::20       296168                       # Per bank write bursts (Count)
system.mem_ctrl.dram.perBankRdBursts::21       295967                       # Per bank write bursts (Count)
system.mem_ctrl.dram.perBankRdBursts::22       296225                       # Per bank write bursts (Count)
system.mem_ctrl.dram.perBankRdBursts::23       296307                       # Per bank write bursts (Count)
system.mem_ctrl.dram.perBankRdBursts::24       297017                       # Per bank write bursts (Count)
system.mem_ctrl.dram.perBankRdBursts::25       296125                       # Per bank write bursts (Count)
system.mem_ctrl.dram.perBankRdBursts::26       296449                       # Per bank write bursts (Count)
system.mem_ctrl.dram.perBankRdBursts::27       294087                       # Per bank write bursts (Count)
system.mem_ctrl.dram.perBankRdBursts::28       300264                       # Per bank write bursts (Count)
system.mem_ctrl.dram.perBankRdBursts::29       301635                       # Per bank write bursts (Count)
system.mem_ctrl.dram.perBankRdBursts::30       300307                       # Per bank write bursts (Count)
system.mem_ctrl.dram.perBankRdBursts::31       298724                       # Per bank write bursts (Count)
system.mem_ctrl.dram.perBankWrBursts::0        163099                       # Per bank write bursts (Count)
system.mem_ctrl.dram.perBankWrBursts::1        164691                       # Per bank write bursts (Count)
system.mem_ctrl.dram.perBankWrBursts::2        163782                       # Per bank write bursts (Count)
system.mem_ctrl.dram.perBankWrBursts::3        163821                       # Per bank write bursts (Count)
system.mem_ctrl.dram.perBankWrBursts::4        164330                       # Per bank write bursts (Count)
system.mem_ctrl.dram.perBankWrBursts::5        163893                       # Per bank write bursts (Count)
system.mem_ctrl.dram.perBankWrBursts::6        164823                       # Per bank write bursts (Count)
system.mem_ctrl.dram.perBankWrBursts::7        163853                       # Per bank write bursts (Count)
system.mem_ctrl.dram.perBankWrBursts::8        163702                       # Per bank write bursts (Count)
system.mem_ctrl.dram.perBankWrBursts::9        162790                       # Per bank write bursts (Count)
system.mem_ctrl.dram.perBankWrBursts::10       162713                       # Per bank write bursts (Count)
system.mem_ctrl.dram.perBankWrBursts::11       162492                       # Per bank write bursts (Count)
system.mem_ctrl.dram.perBankWrBursts::12       162477                       # Per bank write bursts (Count)
system.mem_ctrl.dram.perBankWrBursts::13       163181                       # Per bank write bursts (Count)
system.mem_ctrl.dram.perBankWrBursts::14       162827                       # Per bank write bursts (Count)
system.mem_ctrl.dram.perBankWrBursts::15       163364                       # Per bank write bursts (Count)
system.mem_ctrl.dram.perBankWrBursts::16       163275                       # Per bank write bursts (Count)
system.mem_ctrl.dram.perBankWrBursts::17       161796                       # Per bank write bursts (Count)
system.mem_ctrl.dram.perBankWrBursts::18       163035                       # Per bank write bursts (Count)
system.mem_ctrl.dram.perBankWrBursts::19       163263                       # Per bank write bursts (Count)
system.mem_ctrl.dram.perBankWrBursts::20       162556                       # Per bank write bursts (Count)
system.mem_ctrl.dram.perBankWrBursts::21       161088                       # Per bank write bursts (Count)
system.mem_ctrl.dram.perBankWrBursts::22       161751                       # Per bank write bursts (Count)
system.mem_ctrl.dram.perBankWrBursts::23       160806                       # Per bank write bursts (Count)
system.mem_ctrl.dram.perBankWrBursts::24       162131                       # Per bank write bursts (Count)
system.mem_ctrl.dram.perBankWrBursts::25       161044                       # Per bank write bursts (Count)
system.mem_ctrl.dram.perBankWrBursts::26       161597                       # Per bank write bursts (Count)
system.mem_ctrl.dram.perBankWrBursts::27       159751                       # Per bank write bursts (Count)
system.mem_ctrl.dram.perBankWrBursts::28       164289                       # Per bank write bursts (Count)
system.mem_ctrl.dram.perBankWrBursts::29       164310                       # Per bank write bursts (Count)
system.mem_ctrl.dram.perBankWrBursts::30       164194                       # Per bank write bursts (Count)
system.mem_ctrl.dram.perBankWrBursts::31       163118                       # Per bank write bursts (Count)
system.mem_ctrl.dram.totQLat             176813329752                       # Total ticks spent queuing (Tick)
system.mem_ctrl.dram.totBusLat            31767811124                       # Total ticks spent in databus transfers (Tick)
system.mem_ctrl.dram.totMemAccLat        343584803996                       # Total ticks spent from burst creation until serviced by the DRAM (Tick)
system.mem_ctrl.dram.avgQLat                 18545.25                       # Average queueing delay per DRAM burst ((Tick/Count))
system.mem_ctrl.dram.avgBusLat                3332.00                       # Average bus latency per DRAM burst ((Tick/Count))
system.mem_ctrl.dram.avgMemAccLat            36037.25                       # Average memory access latency per DRAM burst ((Tick/Count))
system.mem_ctrl.dram.readRowHits              8524485                       # Number of row buffer hits during reads (Count)
system.mem_ctrl.dram.writeRowHits             4470191                       # Number of row buffer hits during writes (Count)
system.mem_ctrl.dram.readRowHitRate             89.41                       # Row buffer hit rate for reads (Ratio)
system.mem_ctrl.dram.writeRowHitRate            85.74                       # Row buffer hit rate for writes (Ratio)
system.mem_ctrl.dram.bytesPerActivate::samples      1753323                       # Bytes accessed per row activation (Byte)
system.mem_ctrl.dram.bytesPerActivate::mean   538.333174                       # Bytes accessed per row activation (Byte)
system.mem_ctrl.dram.bytesPerActivate::gmean   348.672241                       # Bytes accessed per row activation (Byte)
system.mem_ctrl.dram.bytesPerActivate::stdev   380.536199                       # Bytes accessed per row activation (Byte)
system.mem_ctrl.dram.bytesPerActivate::0-127       410740     23.43%     23.43% # Bytes accessed per row activation (Byte)
system.mem_ctrl.dram.bytesPerActivate::128-255       146255      8.34%     31.77% # Bytes accessed per row activation (Byte)
system.mem_ctrl.dram.bytesPerActivate::256-383        60959      3.48%     35.24% # Bytes accessed per row activation (Byte)
system.mem_ctrl.dram.bytesPerActivate::384-511        65611      3.74%     38.99% # Bytes accessed per row activation (Byte)
system.mem_ctrl.dram.bytesPerActivate::512-639       413540     23.59%     62.57% # Bytes accessed per row activation (Byte)
system.mem_ctrl.dram.bytesPerActivate::640-767        53363      3.04%     65.62% # Bytes accessed per row activation (Byte)
system.mem_ctrl.dram.bytesPerActivate::768-895        40639      2.32%     67.93% # Bytes accessed per row activation (Byte)
system.mem_ctrl.dram.bytesPerActivate::896-1023        32624      1.86%     69.79% # Bytes accessed per row activation (Byte)
system.mem_ctrl.dram.bytesPerActivate::1024-1151       529592     30.21%    100.00% # Bytes accessed per row activation (Byte)
system.mem_ctrl.dram.bytesPerActivate::total      1753323                       # Bytes accessed per row activation (Byte)
system.mem_ctrl.dram.bytesRead              610186048                       # Total bytes read (Byte)
system.mem_ctrl.dram.bytesWritten           333685888                       # Total bytes written (Byte)
system.mem_ctrl.dram.avgRdBW              1283.854354                       # Average DRAM read bandwidth in MiBytes/s ((Byte/Second))
system.mem_ctrl.dram.avgWrBW               702.087636                       # Average DRAM write bandwidth in MiBytes/s ((Byte/Second))
system.mem_ctrl.dram.peakBW                  19207.00                       # Theoretical peak bandwidth in MiByte/s ((Byte/Second))
system.mem_ctrl.dram.busUtil                    10.34                       # Data bus utilization in percentage (Ratio)
system.mem_ctrl.dram.busUtilRead                 6.68                       # Data bus utilization in percentage for reads (Ratio)
system.mem_ctrl.dram.busUtilWrite                3.66                       # Data bus utilization in percentage for writes (Ratio)
system.mem_ctrl.dram.pageHitRate                88.11                       # Row buffer hit rate, read and write combined (Ratio)
system.mem_ctrl.dram.power_state.pwrStateResidencyTicks::UNDEFINED 475276690150                       # Cumulative time (in ticks) in various power states (Tick)
system.mem_ctrl.dram.rank0.actEnergy     2752367252.543993                       # Energy for activate commands per rank (pJ) (Joule)
system.mem_ctrl.dram.rank0.preEnergy     3659236975.496952                       # Energy for precharge commands per rank (pJ) (Joule)
system.mem_ctrl.dram.rank0.readEnergy    20091703542.622334                       # Energy for read commands per rank (pJ) (Joule)
system.mem_ctrl.dram.rank0.writeEnergy   9831616659.646315                       # Energy for write commands per rank (pJ) (Joule)
system.mem_ctrl.dram.rank0.refreshEnergy 84567606497.079285                       # Energy for refresh commands per rank (pJ) (Joule)
system.mem_ctrl.dram.rank0.actBackEnergy 236820284095.822784                       # Energy for active background per rank (pJ) (Joule)
system.mem_ctrl.dram.rank0.preBackEnergy 128297015602.004379                       # Energy for precharge background per rank (pJ) (Joule)
system.mem_ctrl.dram.rank0.actPowerDownEnergy            0                       # Energy for active power-down per rank (pJ) (Joule)
system.mem_ctrl.dram.rank0.prePowerDownEnergy            0                       # Energy for precharge power-down per rank (pJ) (Joule)
system.mem_ctrl.dram.rank0.selfRefreshEnergy            0                       # Energy for self refresh per rank (pJ) (Joule)
system.mem_ctrl.dram.rank0.totalEnergy   486019830625.338989                       # Total energy per rank (pJ) (Joule)
system.mem_ctrl.dram.rank0.averagePower   1022.603971                       # Core power per rank (mW) (Watt)
system.mem_ctrl.dram.rank0.totalIdleTime            0                       # Total Idle time Per DRAM Rank (Tick)
system.mem_ctrl.dram.rank0.pwrStateTime::IDLE 194471126584                       # Time in different power states (Tick)
system.mem_ctrl.dram.rank0.pwrStateTime::REF  21365050000                       # Time in different power states (Tick)
system.mem_ctrl.dram.rank0.pwrStateTime::SREF            0                       # Time in different power states (Tick)
system.mem_ctrl.dram.rank0.pwrStateTime::PRE_PDN            0                       # Time in different power states (Tick)
system.mem_ctrl.dram.rank0.pwrStateTime::ACT 259440513566                       # Time in different power states (Tick)
system.mem_ctrl.dram.rank0.pwrStateTime::ACT_PDN            0                       # Time in different power states (Tick)
system.mem_ctrl.dram.rank1.actEnergy     2715812360.352036                       # Energy for activate commands per rank (pJ) (Joule)
system.mem_ctrl.dram.rank1.preEnergy     3610637714.980268                       # Energy for precharge commands per rank (pJ) (Joule)
system.mem_ctrl.dram.rank1.readEnergy    20011981220.311543                       # Energy for read commands per rank (pJ) (Joule)
system.mem_ctrl.dram.rank1.writeEnergy   9764587641.982214                       # Energy for write commands per rank (pJ) (Joule)
system.mem_ctrl.dram.rank1.refreshEnergy 84567606497.079285                       # Energy for refresh commands per rank (pJ) (Joule)
system.mem_ctrl.dram.rank1.actBackEnergy 231945414711.855499                       # Energy for active background per rank (pJ) (Joule)
system.mem_ctrl.dram.rank1.preBackEnergy 132042677953.520950                       # Energy for precharge background per rank (pJ) (Joule)
system.mem_ctrl.dram.rank1.actPowerDownEnergy            0                       # Energy for active power-down per rank (pJ) (Joule)
system.mem_ctrl.dram.rank1.prePowerDownEnergy            0                       # Energy for precharge power-down per rank (pJ) (Joule)
system.mem_ctrl.dram.rank1.selfRefreshEnergy            0                       # Energy for self refresh per rank (pJ) (Joule)
system.mem_ctrl.dram.rank1.totalEnergy   484658718100.200684                       # Total energy per rank (pJ) (Joule)
system.mem_ctrl.dram.rank1.averagePower   1019.740139                       # Core power per rank (mW) (Watt)
system.mem_ctrl.dram.rank1.totalIdleTime            0                       # Total Idle time Per DRAM Rank (Tick)
system.mem_ctrl.dram.rank1.pwrStateTime::IDLE 200218950938                       # Time in different power states (Tick)
system.mem_ctrl.dram.rank1.pwrStateTime::REF  21365050000                       # Time in different power states (Tick)
system.mem_ctrl.dram.rank1.pwrStateTime::SREF            0                       # Time in different power states (Tick)
system.mem_ctrl.dram.rank1.pwrStateTime::PRE_PDN            0                       # Time in different power states (Tick)
system.mem_ctrl.dram.rank1.pwrStateTime::ACT 253692689212                       # Time in different power states (Tick)
system.mem_ctrl.dram.rank1.pwrStateTime::ACT_PDN            0                       # Time in different power states (Tick)
system.mem_ctrl.power_state.pwrStateResidencyTicks::UNDEFINED 475276690150                       # Cumulative time (in ticks) in various power states (Tick)
system.membus.transDist::ReadResp             4472759                       # Transaction distribution (Count)
system.membus.transDist::WritebackDirty       5213889                       # Transaction distribution (Count)
system.membus.transDist::CleanEvict           4289765                       # Transaction distribution (Count)
system.membus.transDist::ReadExReq            5064221                       # Transaction distribution (Count)
system.membus.transDist::ReadExResp           5064221                       # Transaction distribution (Count)
system.membus.transDist::ReadSharedReq        4472759                       # Transaction distribution (Count)
system.membus.transDist::InvalidateReq              1                       # Transaction distribution (Count)
system.membus.pktCount_system.l2cache.mem_side_port::system.mem_ctrl.port     28577615                       # Packet count per connected requestor and responder (Count)
system.membus.pktCount::total                28577615                       # Packet count per connected requestor and responder (Count)
system.membus.pktSize_system.l2cache.mem_side_port::system.mem_ctrl.port    944055616                       # Cumulative packet size per connected requestor and responder (Byte)
system.membus.pktSize::total                944055616                       # Cumulative packet size per connected requestor and responder (Byte)
system.membus.snoops                                0                       # Total snoops (Count)
system.membus.snoopTraffic                          0                       # Total snoop traffic (Byte)
system.membus.snoopFanout::samples            9536981                       # Request fanout histogram (Count)
system.membus.snoopFanout::mean                     0                       # Request fanout histogram (Count)
system.membus.snoopFanout::stdev                    0                       # Request fanout histogram (Count)
system.membus.snoopFanout::underflows               0      0.00%      0.00% # Request fanout histogram (Count)
system.membus.snoopFanout::0                  9536981    100.00%    100.00% # Request fanout histogram (Count)
system.membus.snoopFanout::1                        0      0.00%    100.00% # Request fanout histogram (Count)
system.membus.snoopFanout::overflows                0      0.00%    100.00% # Request fanout histogram (Count)
system.membus.snoopFanout::min_value                0                       # Request fanout histogram (Count)
system.membus.snoopFanout::max_value                0                       # Request fanout histogram (Count)
system.membus.snoopFanout::total              9536981                       # Request fanout histogram (Count)
system.membus.power_state.pwrStateResidencyTicks::UNDEFINED 475276690150                       # Cumulative time (in ticks) in various power states (Tick)
system.membus.reqLayer0.occupancy         21196841610                       # Layer occupancy (ticks) (Tick)
system.membus.reqLayer0.utilization               0.0                       # Layer utilization (Ratio)
system.membus.respLayer0.occupancy        25441972768                       # Layer occupancy (ticks) (Tick)
system.membus.respLayer0.utilization              0.1                       # Layer utilization (Ratio)
system.membus.snoop_filter.totRequests       19040635                       # Total number of requests made to the snoop filter. (Count)
system.membus.snoop_filter.hitSingleRequests      9503739                       # Number of requests hitting in the snoop filter with a single holder of the requested data. (Count)
system.membus.snoop_filter.hitMultiRequests            0                       # Number of requests hitting in the snoop filter with multiple (>1) holders of the requested data. (Count)
system.membus.snoop_filter.totSnoops                0                       # Total number of snoops made to the snoop filter. (Count)
system.membus.snoop_filter.hitSingleSnoops            0                       # Number of snoops hitting in the snoop filter with a single holder of the requested data. (Count)
system.membus.snoop_filter.hitMultiSnoops            0                       # Number of snoops hitting in the snoop filter with multiple (>1) holders of the requested data. (Count)
system.workload.inst.arm                            0                       # number of arm instructions executed (Count)
system.workload.inst.quiesce                        0                       # number of quiesce instructions executed (Count)

---------- End Simulation Statistics   ----------
