
---------- Begin Simulation Statistics ----------
simSeconds                                   1.916150                       # Number of seconds simulated (Second)
simTicks                                 1916150118047                       # Number of ticks simulated (Tick)
finalTick                                1916150118047                       # Number of ticks from beginning of simulation (restored from checkpoints and never reset) (Tick)
simFreq                                  1000000000000                       # The number of ticks per simulated second ((Tick/Second))
hostSeconds                                   3173.97                       # Real time elapsed on the host (Second)
hostTickRate                                603708052                       # The number of ticks simulated per host second (ticks/s) ((Tick/Second))
hostMemory                                    2294620                       # Number of bytes of host memory used (Byte)
simInsts                                   1000000001                       # Number of instructions simulated (Count)
simOps                                     1160088218                       # Number of ops (including micro ops) simulated (Count)
hostInstRate                                   315063                       # Simulator instruction rate (inst/s) ((Count/Second))
hostOpRate                                     365501                       # Simulator op (including micro ops) rate (op/s) ((Count/Second))
system.clk_domain.clock                           500                       # Clock period in ticks (Tick)
system.clk_domain.voltage_domain.voltage            1                       # Voltage in Volts (Volt)
system.cpu.numCycles                       1724707577                       # Number of cpu cycles simulated (Cycle)
system.cpu.numWorkItemsStarted                      0                       # Number of work items this cpu started (Count)
system.cpu.numWorkItemsCompleted                    0                       # Number of work items this cpu completed (Count)
system.cpu.numInsts                        1000000001                       # Number of instructions committed (Count)
system.cpu.numOps                          1160088218                       # Number of ops (including micro ops) committed (Count)
system.cpu.numDiscardedOps                   28332993                       # Number of ops (including micro ops) which were discarded before commit (Count)
system.cpu.numFetchSuspends                         0                       # Number of times Execute suspended instruction fetching (Count)
system.cpu.cpi                               1.724708                       # CPI: cycles per instruction ((Cycle/Count))
system.cpu.ipc                               0.579808                       # IPC: instructions per cycle ((Count/Cycle))
system.cpu.committedInstType_0::No_OpClass            0      0.00%      0.00% # Class of committed instruction (Count)
system.cpu.committedInstType_0::IntAlu      578088906     49.83%     49.83% # Class of committed instruction (Count)
system.cpu.committedInstType_0::IntMult           809      0.00%     49.83% # Class of committed instruction (Count)
system.cpu.committedInstType_0::IntDiv              0      0.00%     49.83% # Class of committed instruction (Count)
system.cpu.committedInstType_0::FloatAdd            0      0.00%     49.83% # Class of committed instruction (Count)
system.cpu.committedInstType_0::FloatCmp            0      0.00%     49.83% # Class of committed instruction (Count)
system.cpu.committedInstType_0::FloatCvt            0      0.00%     49.83% # Class of committed instruction (Count)
system.cpu.committedInstType_0::FloatMult            0      0.00%     49.83% # Class of committed instruction (Count)
system.cpu.committedInstType_0::FloatMultAcc            0      0.00%     49.83% # Class of committed instruction (Count)
system.cpu.committedInstType_0::FloatDiv            0      0.00%     49.83% # Class of committed instruction (Count)
system.cpu.committedInstType_0::FloatMisc            0      0.00%     49.83% # Class of committed instruction (Count)
system.cpu.committedInstType_0::FloatSqrt            0      0.00%     49.83% # Class of committed instruction (Count)
system.cpu.committedInstType_0::SimdAdd             0      0.00%     49.83% # Class of committed instruction (Count)
system.cpu.committedInstType_0::SimdAddAcc            0      0.00%     49.83% # Class of committed instruction (Count)
system.cpu.committedInstType_0::SimdAlu             0      0.00%     49.83% # Class of committed instruction (Count)
system.cpu.committedInstType_0::SimdCmp             0      0.00%     49.83% # Class of committed instruction (Count)
system.cpu.committedInstType_0::SimdCvt             0      0.00%     49.83% # Class of committed instruction (Count)
system.cpu.committedInstType_0::SimdMisc            0      0.00%     49.83% # Class of committed instruction (Count)
system.cpu.committedInstType_0::SimdMult            0      0.00%     49.83% # Class of committed instruction (Count)
system.cpu.committedInstType_0::SimdMultAcc            0      0.00%     49.83% # Class of committed instruction (Count)
system.cpu.committedInstType_0::SimdShift            0      0.00%     49.83% # Class of committed instruction (Count)
system.cpu.committedInstType_0::SimdShiftAcc            0      0.00%     49.83% # Class of committed instruction (Count)
system.cpu.committedInstType_0::SimdDiv             0      0.00%     49.83% # Class of committed instruction (Count)
system.cpu.committedInstType_0::SimdSqrt            0      0.00%     49.83% # Class of committed instruction (Count)
system.cpu.committedInstType_0::SimdFloatAdd            0      0.00%     49.83% # Class of committed instruction (Count)
system.cpu.committedInstType_0::SimdFloatAlu            0      0.00%     49.83% # Class of committed instruction (Count)
system.cpu.committedInstType_0::SimdFloatCmp            0      0.00%     49.83% # Class of committed instruction (Count)
system.cpu.committedInstType_0::SimdFloatCvt            0      0.00%     49.83% # Class of committed instruction (Count)
system.cpu.committedInstType_0::SimdFloatDiv            0      0.00%     49.83% # Class of committed instruction (Count)
system.cpu.committedInstType_0::SimdFloatMisc            3      0.00%     49.83% # Class of committed instruction (Count)
system.cpu.committedInstType_0::SimdFloatMult            0      0.00%     49.83% # Class of committed instruction (Count)
system.cpu.committedInstType_0::SimdFloatMultAcc            0      0.00%     49.83% # Class of committed instruction (Count)
system.cpu.committedInstType_0::SimdFloatSqrt            0      0.00%     49.83% # Class of committed instruction (Count)
system.cpu.committedInstType_0::SimdReduceAdd            0      0.00%     49.83% # Class of committed instruction (Count)
system.cpu.committedInstType_0::SimdReduceAlu            0      0.00%     49.83% # Class of committed instruction (Count)
system.cpu.committedInstType_0::SimdReduceCmp            0      0.00%     49.83% # Class of committed instruction (Count)
system.cpu.committedInstType_0::SimdFloatReduceAdd            0      0.00%     49.83% # Class of committed instruction (Count)
system.cpu.committedInstType_0::SimdFloatReduceCmp            0      0.00%     49.83% # Class of committed instruction (Count)
system.cpu.committedInstType_0::SimdAes             0      0.00%     49.83% # Class of committed instruction (Count)
system.cpu.committedInstType_0::SimdAesMix            0      0.00%     49.83% # Class of committed instruction (Count)
system.cpu.committedInstType_0::SimdSha1Hash            0      0.00%     49.83% # Class of committed instruction (Count)
system.cpu.committedInstType_0::SimdSha1Hash2            0      0.00%     49.83% # Class of committed instruction (Count)
system.cpu.committedInstType_0::SimdSha256Hash            0      0.00%     49.83% # Class of committed instruction (Count)
system.cpu.committedInstType_0::SimdSha256Hash2            0      0.00%     49.83% # Class of committed instruction (Count)
system.cpu.committedInstType_0::SimdShaSigma2            0      0.00%     49.83% # Class of committed instruction (Count)
system.cpu.committedInstType_0::SimdShaSigma3            0      0.00%     49.83% # Class of committed instruction (Count)
system.cpu.committedInstType_0::SimdPredAlu            0      0.00%     49.83% # Class of committed instruction (Count)
system.cpu.committedInstType_0::MemRead     366633229     31.60%     81.44% # Class of committed instruction (Count)
system.cpu.committedInstType_0::MemWrite    215365271     18.56%    100.00% # Class of committed instruction (Count)
system.cpu.committedInstType_0::FloatMemRead            0      0.00%    100.00% # Class of committed instruction (Count)
system.cpu.committedInstType_0::FloatMemWrite            0      0.00%    100.00% # Class of committed instruction (Count)
system.cpu.committedInstType_0::IprAccess            0      0.00%    100.00% # Class of committed instruction (Count)
system.cpu.committedInstType_0::InstPrefetch            0      0.00%    100.00% # Class of committed instruction (Count)
system.cpu.committedInstType_0::total      1160088218                       # Class of committed instruction (Count)
system.cpu.branchPred.lookups               163410561                       # Number of BP lookups (Count)
system.cpu.branchPred.condPredicted         136145865                       # Number of conditional branches predicted (Count)
system.cpu.branchPred.condIncorrect          10016549                       # Number of conditional branches incorrect (Count)
system.cpu.branchPred.BTBLookups             85711247                       # Number of BTB lookups (Count)
system.cpu.branchPred.BTBHits                85647739                       # Number of BTB hits (Count)
system.cpu.branchPred.BTBHitRatio            0.999259                       # BTB Hit Ratio (Ratio)
system.cpu.branchPred.RASUsed                 6437574                       # Number of times the RAS was used to get a target. (Count)
system.cpu.branchPred.RASIncorrect                 14                       # Number of incorrect RAS predictions. (Count)
system.cpu.branchPred.indirectLookups            2849                       # Number of indirect predictor lookups. (Count)
system.cpu.branchPred.indirectHits               2453                       # Number of indirect target hits. (Count)
system.cpu.branchPred.indirectMisses              396                       # Number of indirect misses. (Count)
system.cpu.branchPred.indirectMispredicted          509                       # Number of mispredicted indirect branches. (Count)
system.cpu.dcache.demandHits::cpu.data      551757256                       # number of demand (read+write) hits (Count)
system.cpu.dcache.demandHits::total         551757256                       # number of demand (read+write) hits (Count)
system.cpu.dcache.overallHits::cpu.data     555344534                       # number of overall hits (Count)
system.cpu.dcache.overallHits::total        555344534                       # number of overall hits (Count)
system.cpu.dcache.demandMisses::cpu.data     22146384                       # number of demand (read+write) misses (Count)
system.cpu.dcache.demandMisses::total        22146384                       # number of demand (read+write) misses (Count)
system.cpu.dcache.overallMisses::cpu.data     26230848                       # number of overall misses (Count)
system.cpu.dcache.overallMisses::total       26230848                       # number of overall misses (Count)
system.cpu.dcache.demandMissLatency::cpu.data 929529640548                       # number of demand (read+write) miss ticks (Tick)
system.cpu.dcache.demandMissLatency::total 929529640548                       # number of demand (read+write) miss ticks (Tick)
system.cpu.dcache.overallMissLatency::cpu.data 929529640548                       # number of overall miss ticks (Tick)
system.cpu.dcache.overallMissLatency::total 929529640548                       # number of overall miss ticks (Tick)
system.cpu.dcache.demandAccesses::cpu.data    573903640                       # number of demand (read+write) accesses (Count)
system.cpu.dcache.demandAccesses::total     573903640                       # number of demand (read+write) accesses (Count)
system.cpu.dcache.overallAccesses::cpu.data    581575382                       # number of overall (read+write) accesses (Count)
system.cpu.dcache.overallAccesses::total    581575382                       # number of overall (read+write) accesses (Count)
system.cpu.dcache.demandMissRate::cpu.data     0.038589                       # miss rate for demand accesses (Ratio)
system.cpu.dcache.demandMissRate::total      0.038589                       # miss rate for demand accesses (Ratio)
system.cpu.dcache.overallMissRate::cpu.data     0.045103                       # miss rate for overall accesses (Ratio)
system.cpu.dcache.overallMissRate::total     0.045103                       # miss rate for overall accesses (Ratio)
system.cpu.dcache.demandAvgMissLatency::cpu.data 41972.072757                       # average overall miss latency in ticks ((Tick/Count))
system.cpu.dcache.demandAvgMissLatency::total 41972.072757                       # average overall miss latency in ticks ((Tick/Count))
system.cpu.dcache.overallAvgMissLatency::cpu.data 35436.507449                       # average overall miss latency ((Tick/Count))
system.cpu.dcache.overallAvgMissLatency::total 35436.507449                       # average overall miss latency ((Tick/Count))
system.cpu.dcache.blockedCycles::no_mshrs            0                       # number of cycles access was blocked (Cycle)
system.cpu.dcache.blockedCycles::no_targets            0                       # number of cycles access was blocked (Cycle)
system.cpu.dcache.blockedCauses::no_mshrs            0                       # number of times access was blocked (Count)
system.cpu.dcache.blockedCauses::no_targets            0                       # number of times access was blocked (Count)
system.cpu.dcache.avgBlocked::no_mshrs            nan                       # average number of cycles each access was blocked ((Cycle/Count))
system.cpu.dcache.avgBlocked::no_targets          nan                       # average number of cycles each access was blocked ((Cycle/Count))
system.cpu.dcache.writebacks::writebacks     10435422                       # number of writebacks (Count)
system.cpu.dcache.writebacks::total          10435422                       # number of writebacks (Count)
system.cpu.dcache.demandMshrHits::cpu.data      4025512                       # number of demand (read+write) MSHR hits (Count)
system.cpu.dcache.demandMshrHits::total       4025512                       # number of demand (read+write) MSHR hits (Count)
system.cpu.dcache.overallMshrHits::cpu.data      4025512                       # number of overall MSHR hits (Count)
system.cpu.dcache.overallMshrHits::total      4025512                       # number of overall MSHR hits (Count)
system.cpu.dcache.demandMshrMisses::cpu.data     18120872                       # number of demand (read+write) MSHR misses (Count)
system.cpu.dcache.demandMshrMisses::total     18120872                       # number of demand (read+write) MSHR misses (Count)
system.cpu.dcache.overallMshrMisses::cpu.data     21949676                       # number of overall MSHR misses (Count)
system.cpu.dcache.overallMshrMisses::total     21949676                       # number of overall MSHR misses (Count)
system.cpu.dcache.demandMshrMissLatency::cpu.data 620106102223                       # number of demand (read+write) MSHR miss ticks (Tick)
system.cpu.dcache.demandMshrMissLatency::total 620106102223                       # number of demand (read+write) MSHR miss ticks (Tick)
system.cpu.dcache.overallMshrMissLatency::cpu.data 917985879356                       # number of overall MSHR miss ticks (Tick)
system.cpu.dcache.overallMshrMissLatency::total 917985879356                       # number of overall MSHR miss ticks (Tick)
system.cpu.dcache.demandMshrMissRate::cpu.data     0.031575                       # mshr miss ratio for demand accesses (Ratio)
system.cpu.dcache.demandMshrMissRate::total     0.031575                       # mshr miss ratio for demand accesses (Ratio)
system.cpu.dcache.overallMshrMissRate::cpu.data     0.037742                       # mshr miss ratio for overall accesses (Ratio)
system.cpu.dcache.overallMshrMissRate::total     0.037742                       # mshr miss ratio for overall accesses (Ratio)
system.cpu.dcache.demandAvgMshrMissLatency::cpu.data 34220.544255                       # average overall mshr miss latency ((Tick/Count))
system.cpu.dcache.demandAvgMshrMissLatency::total 34220.544255                       # average overall mshr miss latency ((Tick/Count))
system.cpu.dcache.overallAvgMshrMissLatency::cpu.data 41822.297484                       # average overall mshr miss latency ((Tick/Count))
system.cpu.dcache.overallAvgMshrMissLatency::total 41822.297484                       # average overall mshr miss latency ((Tick/Count))
system.cpu.dcache.replacements               21949166                       # number of replacements (Count)
system.cpu.dcache.LoadLockedReq.hits::cpu.data           37                       # number of LoadLockedReq hits (Count)
system.cpu.dcache.LoadLockedReq.hits::total           37                       # number of LoadLockedReq hits (Count)
system.cpu.dcache.LoadLockedReq.misses::cpu.data            2                       # number of LoadLockedReq misses (Count)
system.cpu.dcache.LoadLockedReq.misses::total            2                       # number of LoadLockedReq misses (Count)
system.cpu.dcache.LoadLockedReq.missLatency::cpu.data       137764                       # number of LoadLockedReq miss ticks (Tick)
system.cpu.dcache.LoadLockedReq.missLatency::total       137764                       # number of LoadLockedReq miss ticks (Tick)
system.cpu.dcache.LoadLockedReq.accesses::cpu.data           39                       # number of LoadLockedReq accesses(hits+misses) (Count)
system.cpu.dcache.LoadLockedReq.accesses::total           39                       # number of LoadLockedReq accesses(hits+misses) (Count)
system.cpu.dcache.LoadLockedReq.missRate::cpu.data     0.051282                       # miss rate for LoadLockedReq accesses (Ratio)
system.cpu.dcache.LoadLockedReq.missRate::total     0.051282                       # miss rate for LoadLockedReq accesses (Ratio)
system.cpu.dcache.LoadLockedReq.avgMissLatency::cpu.data        68882                       # average LoadLockedReq miss latency ((Tick/Count))
system.cpu.dcache.LoadLockedReq.avgMissLatency::total        68882                       # average LoadLockedReq miss latency ((Tick/Count))
system.cpu.dcache.LoadLockedReq.mshrMisses::cpu.data            2                       # number of LoadLockedReq MSHR misses (Count)
system.cpu.dcache.LoadLockedReq.mshrMisses::total            2                       # number of LoadLockedReq MSHR misses (Count)
system.cpu.dcache.LoadLockedReq.mshrMissLatency::cpu.data       132802                       # number of LoadLockedReq MSHR miss ticks (Tick)
system.cpu.dcache.LoadLockedReq.mshrMissLatency::total       132802                       # number of LoadLockedReq MSHR miss ticks (Tick)
system.cpu.dcache.LoadLockedReq.mshrMissRate::cpu.data     0.051282                       # mshr miss rate for LoadLockedReq accesses (Ratio)
system.cpu.dcache.LoadLockedReq.mshrMissRate::total     0.051282                       # mshr miss rate for LoadLockedReq accesses (Ratio)
system.cpu.dcache.LoadLockedReq.avgMshrMissLatency::cpu.data        66401                       # average LoadLockedReq mshr miss latency ((Tick/Count))
system.cpu.dcache.LoadLockedReq.avgMshrMissLatency::total        66401                       # average LoadLockedReq mshr miss latency ((Tick/Count))
system.cpu.dcache.ReadReq.hits::cpu.data    350057003                       # number of ReadReq hits (Count)
system.cpu.dcache.ReadReq.hits::total       350057003                       # number of ReadReq hits (Count)
system.cpu.dcache.ReadReq.misses::cpu.data     10627402                       # number of ReadReq misses (Count)
system.cpu.dcache.ReadReq.misses::total      10627402                       # number of ReadReq misses (Count)
system.cpu.dcache.ReadReq.missLatency::cpu.data 215992440936                       # number of ReadReq miss ticks (Tick)
system.cpu.dcache.ReadReq.missLatency::total 215992440936                       # number of ReadReq miss ticks (Tick)
system.cpu.dcache.ReadReq.accesses::cpu.data    360684405                       # number of ReadReq accesses(hits+misses) (Count)
system.cpu.dcache.ReadReq.accesses::total    360684405                       # number of ReadReq accesses(hits+misses) (Count)
system.cpu.dcache.ReadReq.missRate::cpu.data     0.029465                       # miss rate for ReadReq accesses (Ratio)
system.cpu.dcache.ReadReq.missRate::total     0.029465                       # miss rate for ReadReq accesses (Ratio)
system.cpu.dcache.ReadReq.avgMissLatency::cpu.data 20324.105641                       # average ReadReq miss latency ((Tick/Count))
system.cpu.dcache.ReadReq.avgMissLatency::total 20324.105641                       # average ReadReq miss latency ((Tick/Count))
system.cpu.dcache.ReadReq.mshrHits::cpu.data        48956                       # number of ReadReq MSHR hits (Count)
system.cpu.dcache.ReadReq.mshrHits::total        48956                       # number of ReadReq MSHR hits (Count)
system.cpu.dcache.ReadReq.mshrMisses::cpu.data     10578446                       # number of ReadReq MSHR misses (Count)
system.cpu.dcache.ReadReq.mshrMisses::total     10578446                       # number of ReadReq MSHR misses (Count)
system.cpu.dcache.ReadReq.mshrMissLatency::cpu.data 186659577546                       # number of ReadReq MSHR miss ticks (Tick)
system.cpu.dcache.ReadReq.mshrMissLatency::total 186659577546                       # number of ReadReq MSHR miss ticks (Tick)
system.cpu.dcache.ReadReq.mshrMissRate::cpu.data     0.029329                       # mshr miss rate for ReadReq accesses (Ratio)
system.cpu.dcache.ReadReq.mshrMissRate::total     0.029329                       # mshr miss rate for ReadReq accesses (Ratio)
system.cpu.dcache.ReadReq.avgMshrMissLatency::cpu.data 17645.273942                       # average ReadReq mshr miss latency ((Tick/Count))
system.cpu.dcache.ReadReq.avgMshrMissLatency::total 17645.273942                       # average ReadReq mshr miss latency ((Tick/Count))
system.cpu.dcache.SoftPFReq.hits::cpu.data      3587278                       # number of SoftPFReq hits (Count)
system.cpu.dcache.SoftPFReq.hits::total       3587278                       # number of SoftPFReq hits (Count)
system.cpu.dcache.SoftPFReq.misses::cpu.data      4084464                       # number of SoftPFReq misses (Count)
system.cpu.dcache.SoftPFReq.misses::total      4084464                       # number of SoftPFReq misses (Count)
system.cpu.dcache.SoftPFReq.accesses::cpu.data      7671742                       # number of SoftPFReq accesses(hits+misses) (Count)
system.cpu.dcache.SoftPFReq.accesses::total      7671742                       # number of SoftPFReq accesses(hits+misses) (Count)
system.cpu.dcache.SoftPFReq.missRate::cpu.data     0.532404                       # miss rate for SoftPFReq accesses (Ratio)
system.cpu.dcache.SoftPFReq.missRate::total     0.532404                       # miss rate for SoftPFReq accesses (Ratio)
system.cpu.dcache.SoftPFReq.mshrMisses::cpu.data      3828804                       # number of SoftPFReq MSHR misses (Count)
system.cpu.dcache.SoftPFReq.mshrMisses::total      3828804                       # number of SoftPFReq MSHR misses (Count)
system.cpu.dcache.SoftPFReq.mshrMissLatency::cpu.data 297879777133                       # number of SoftPFReq MSHR miss ticks (Tick)
system.cpu.dcache.SoftPFReq.mshrMissLatency::total 297879777133                       # number of SoftPFReq MSHR miss ticks (Tick)
system.cpu.dcache.SoftPFReq.mshrMissRate::cpu.data     0.499079                       # mshr miss rate for SoftPFReq accesses (Ratio)
system.cpu.dcache.SoftPFReq.mshrMissRate::total     0.499079                       # mshr miss rate for SoftPFReq accesses (Ratio)
system.cpu.dcache.SoftPFReq.avgMshrMissLatency::cpu.data 77799.693359                       # average SoftPFReq mshr miss latency ((Tick/Count))
system.cpu.dcache.SoftPFReq.avgMshrMissLatency::total 77799.693359                       # average SoftPFReq mshr miss latency ((Tick/Count))
system.cpu.dcache.StoreCondReq.hits::cpu.data           39                       # number of StoreCondReq hits (Count)
system.cpu.dcache.StoreCondReq.hits::total           39                       # number of StoreCondReq hits (Count)
system.cpu.dcache.StoreCondReq.accesses::cpu.data           39                       # number of StoreCondReq accesses(hits+misses) (Count)
system.cpu.dcache.StoreCondReq.accesses::total           39                       # number of StoreCondReq accesses(hits+misses) (Count)
system.cpu.dcache.WriteReq.hits::cpu.data    201700253                       # number of WriteReq hits (Count)
system.cpu.dcache.WriteReq.hits::total      201700253                       # number of WriteReq hits (Count)
system.cpu.dcache.WriteReq.misses::cpu.data     11518982                       # number of WriteReq misses (Count)
system.cpu.dcache.WriteReq.misses::total     11518982                       # number of WriteReq misses (Count)
system.cpu.dcache.WriteReq.missLatency::cpu.data 713537199612                       # number of WriteReq miss ticks (Tick)
system.cpu.dcache.WriteReq.missLatency::total 713537199612                       # number of WriteReq miss ticks (Tick)
system.cpu.dcache.WriteReq.accesses::cpu.data    213219235                       # number of WriteReq accesses(hits+misses) (Count)
system.cpu.dcache.WriteReq.accesses::total    213219235                       # number of WriteReq accesses(hits+misses) (Count)
system.cpu.dcache.WriteReq.missRate::cpu.data     0.054024                       # miss rate for WriteReq accesses (Ratio)
system.cpu.dcache.WriteReq.missRate::total     0.054024                       # miss rate for WriteReq accesses (Ratio)
system.cpu.dcache.WriteReq.avgMissLatency::cpu.data 61944.466934                       # average WriteReq miss latency ((Tick/Count))
system.cpu.dcache.WriteReq.avgMissLatency::total 61944.466934                       # average WriteReq miss latency ((Tick/Count))
system.cpu.dcache.WriteReq.mshrHits::cpu.data      3976556                       # number of WriteReq MSHR hits (Count)
system.cpu.dcache.WriteReq.mshrHits::total      3976556                       # number of WriteReq MSHR hits (Count)
system.cpu.dcache.WriteReq.mshrMisses::cpu.data      7542426                       # number of WriteReq MSHR misses (Count)
system.cpu.dcache.WriteReq.mshrMisses::total      7542426                       # number of WriteReq MSHR misses (Count)
system.cpu.dcache.WriteReq.mshrMissLatency::cpu.data 433446524677                       # number of WriteReq MSHR miss ticks (Tick)
system.cpu.dcache.WriteReq.mshrMissLatency::total 433446524677                       # number of WriteReq MSHR miss ticks (Tick)
system.cpu.dcache.WriteReq.mshrMissRate::cpu.data     0.035374                       # mshr miss rate for WriteReq accesses (Ratio)
system.cpu.dcache.WriteReq.mshrMissRate::total     0.035374                       # mshr miss rate for WriteReq accesses (Ratio)
system.cpu.dcache.WriteReq.avgMshrMissLatency::cpu.data 57467.786184                       # average WriteReq mshr miss latency ((Tick/Count))
system.cpu.dcache.WriteReq.avgMshrMissLatency::total 57467.786184                       # average WriteReq mshr miss latency ((Tick/Count))
system.cpu.dcache.power_state.pwrStateResidencyTicks::UNDEFINED 1916150118047                       # Cumulative time (in ticks) in various power states (Tick)
system.cpu.dcache.tags.tagsInUse           504.987073                       # Average ticks per tags in use ((Tick/Count))
system.cpu.dcache.tags.totalRefs            577294288                       # Total number of references to valid blocks. (Count)
system.cpu.dcache.tags.sampledRefs           21949678                       # Sample count of references to valid blocks. (Count)
system.cpu.dcache.tags.avgRefs              26.300809                       # Average number of references to valid blocks. ((Count/Count))
system.cpu.dcache.tags.warmupTick              172000                       # The tick when the warmup percentage was hit. (Tick)
system.cpu.dcache.tags.occupancies::cpu.data   504.987073                       # Average occupied blocks per tick, per requestor ((Count/Tick))
system.cpu.dcache.tags.avgOccs::cpu.data     0.986303                       # Average percentage of cache occupancy ((Ratio/Tick))
system.cpu.dcache.tags.avgOccs::total        0.986303                       # Average percentage of cache occupancy ((Ratio/Tick))
system.cpu.dcache.tags.occupanciesTaskId::1024          512                       # Occupied blocks per task id (Count)
system.cpu.dcache.tags.ageTaskId_1024::0          244                       # Occupied blocks per task id, per block age (Count)
system.cpu.dcache.tags.ageTaskId_1024::1          230                       # Occupied blocks per task id, per block age (Count)
system.cpu.dcache.tags.ageTaskId_1024::2           38                       # Occupied blocks per task id, per block age (Count)
system.cpu.dcache.tags.ratioOccsTaskId::1024            1                       # Ratio of occupied blocks and all blocks, per task id (Ratio)
system.cpu.dcache.tags.tagAccesses         2348251518                       # Number of tag accesses (Count)
system.cpu.dcache.tags.dataAccesses        2348251518                       # Number of data accesses (Count)
system.cpu.dcache.tags.power_state.pwrStateResidencyTicks::UNDEFINED 1916150118047                       # Cumulative time (in ticks) in various power states (Tick)
system.cpu.fetch2.intInstructions           432676979                       # Number of integer instructions successfully decoded (Count)
system.cpu.fetch2.fpInstructions                    0                       # Number of floating point instructions successfully decoded (Count)
system.cpu.fetch2.vecInstructions                   0                       # Number of SIMD instructions successfully decoded (Count)
system.cpu.fetch2.loadInstructions          336993544                       # Number of memory load instructions successfully decoded (Count)
system.cpu.fetch2.storeInstructions         122519058                       # Number of memory store instructions successfully decoded (Count)
system.cpu.fetch2.amoInstructions                   0                       # Number of memory atomic instructions successfully decoded (Count)
system.cpu.icache.demandHits::cpu.inst      296063360                       # number of demand (read+write) hits (Count)
system.cpu.icache.demandHits::total         296063360                       # number of demand (read+write) hits (Count)
system.cpu.icache.overallHits::cpu.inst     296063360                       # number of overall hits (Count)
system.cpu.icache.overallHits::total        296063360                       # number of overall hits (Count)
system.cpu.icache.demandMisses::cpu.inst          843                       # number of demand (read+write) misses (Count)
system.cpu.icache.demandMisses::total             843                       # number of demand (read+write) misses (Count)
system.cpu.icache.overallMisses::cpu.inst          843                       # number of overall misses (Count)
system.cpu.icache.overallMisses::total            843                       # number of overall misses (Count)
system.cpu.icache.demandMissLatency::cpu.inst     63385883                       # number of demand (read+write) miss ticks (Tick)
system.cpu.icache.demandMissLatency::total     63385883                       # number of demand (read+write) miss ticks (Tick)
system.cpu.icache.overallMissLatency::cpu.inst     63385883                       # number of overall miss ticks (Tick)
system.cpu.icache.overallMissLatency::total     63385883                       # number of overall miss ticks (Tick)
system.cpu.icache.demandAccesses::cpu.inst    296064203                       # number of demand (read+write) accesses (Count)
system.cpu.icache.demandAccesses::total     296064203                       # number of demand (read+write) accesses (Count)
system.cpu.icache.overallAccesses::cpu.inst    296064203                       # number of overall (read+write) accesses (Count)
system.cpu.icache.overallAccesses::total    296064203                       # number of overall (read+write) accesses (Count)
system.cpu.icache.demandMissRate::cpu.inst     0.000003                       # miss rate for demand accesses (Ratio)
system.cpu.icache.demandMissRate::total      0.000003                       # miss rate for demand accesses (Ratio)
system.cpu.icache.overallMissRate::cpu.inst     0.000003                       # miss rate for overall accesses (Ratio)
system.cpu.icache.overallMissRate::total     0.000003                       # miss rate for overall accesses (Ratio)
system.cpu.icache.demandAvgMissLatency::cpu.inst 75190.845789                       # average overall miss latency in ticks ((Tick/Count))
system.cpu.icache.demandAvgMissLatency::total 75190.845789                       # average overall miss latency in ticks ((Tick/Count))
system.cpu.icache.overallAvgMissLatency::cpu.inst 75190.845789                       # average overall miss latency ((Tick/Count))
system.cpu.icache.overallAvgMissLatency::total 75190.845789                       # average overall miss latency ((Tick/Count))
system.cpu.icache.blockedCycles::no_mshrs            0                       # number of cycles access was blocked (Cycle)
system.cpu.icache.blockedCycles::no_targets            0                       # number of cycles access was blocked (Cycle)
system.cpu.icache.blockedCauses::no_mshrs            0                       # number of times access was blocked (Count)
system.cpu.icache.blockedCauses::no_targets            0                       # number of times access was blocked (Count)
system.cpu.icache.avgBlocked::no_mshrs            nan                       # average number of cycles each access was blocked ((Cycle/Count))
system.cpu.icache.avgBlocked::no_targets          nan                       # average number of cycles each access was blocked ((Cycle/Count))
system.cpu.icache.demandMshrMisses::cpu.inst          843                       # number of demand (read+write) MSHR misses (Count)
system.cpu.icache.demandMshrMisses::total          843                       # number of demand (read+write) MSHR misses (Count)
system.cpu.icache.overallMshrMisses::cpu.inst          843                       # number of overall MSHR misses (Count)
system.cpu.icache.overallMshrMisses::total          843                       # number of overall MSHR misses (Count)
system.cpu.icache.demandMshrMissLatency::cpu.inst     61209699                       # number of demand (read+write) MSHR miss ticks (Tick)
system.cpu.icache.demandMshrMissLatency::total     61209699                       # number of demand (read+write) MSHR miss ticks (Tick)
system.cpu.icache.overallMshrMissLatency::cpu.inst     61209699                       # number of overall MSHR miss ticks (Tick)
system.cpu.icache.overallMshrMissLatency::total     61209699                       # number of overall MSHR miss ticks (Tick)
system.cpu.icache.demandMshrMissRate::cpu.inst     0.000003                       # mshr miss ratio for demand accesses (Ratio)
system.cpu.icache.demandMshrMissRate::total     0.000003                       # mshr miss ratio for demand accesses (Ratio)
system.cpu.icache.overallMshrMissRate::cpu.inst     0.000003                       # mshr miss ratio for overall accesses (Ratio)
system.cpu.icache.overallMshrMissRate::total     0.000003                       # mshr miss ratio for overall accesses (Ratio)
system.cpu.icache.demandAvgMshrMissLatency::cpu.inst 72609.370107                       # average overall mshr miss latency ((Tick/Count))
system.cpu.icache.demandAvgMshrMissLatency::total 72609.370107                       # average overall mshr miss latency ((Tick/Count))
system.cpu.icache.overallAvgMshrMissLatency::cpu.inst 72609.370107                       # average overall mshr miss latency ((Tick/Count))
system.cpu.icache.overallAvgMshrMissLatency::total 72609.370107                       # average overall mshr miss latency ((Tick/Count))
system.cpu.icache.replacements                    352                       # number of replacements (Count)
system.cpu.icache.ReadReq.hits::cpu.inst    296063360                       # number of ReadReq hits (Count)
system.cpu.icache.ReadReq.hits::total       296063360                       # number of ReadReq hits (Count)
system.cpu.icache.ReadReq.misses::cpu.inst          843                       # number of ReadReq misses (Count)
system.cpu.icache.ReadReq.misses::total           843                       # number of ReadReq misses (Count)
system.cpu.icache.ReadReq.missLatency::cpu.inst     63385883                       # number of ReadReq miss ticks (Tick)
system.cpu.icache.ReadReq.missLatency::total     63385883                       # number of ReadReq miss ticks (Tick)
system.cpu.icache.ReadReq.accesses::cpu.inst    296064203                       # number of ReadReq accesses(hits+misses) (Count)
system.cpu.icache.ReadReq.accesses::total    296064203                       # number of ReadReq accesses(hits+misses) (Count)
system.cpu.icache.ReadReq.missRate::cpu.inst     0.000003                       # miss rate for ReadReq accesses (Ratio)
system.cpu.icache.ReadReq.missRate::total     0.000003                       # miss rate for ReadReq accesses (Ratio)
system.cpu.icache.ReadReq.avgMissLatency::cpu.inst 75190.845789                       # average ReadReq miss latency ((Tick/Count))
system.cpu.icache.ReadReq.avgMissLatency::total 75190.845789                       # average ReadReq miss latency ((Tick/Count))
system.cpu.icache.ReadReq.mshrMisses::cpu.inst          843                       # number of ReadReq MSHR misses (Count)
system.cpu.icache.ReadReq.mshrMisses::total          843                       # number of ReadReq MSHR misses (Count)
system.cpu.icache.ReadReq.mshrMissLatency::cpu.inst     61209699                       # number of ReadReq MSHR miss ticks (Tick)
system.cpu.icache.ReadReq.mshrMissLatency::total     61209699                       # number of ReadReq MSHR miss ticks (Tick)
system.cpu.icache.ReadReq.mshrMissRate::cpu.inst     0.000003                       # mshr miss rate for ReadReq accesses (Ratio)
system.cpu.icache.ReadReq.mshrMissRate::total     0.000003                       # mshr miss rate for ReadReq accesses (Ratio)
system.cpu.icache.ReadReq.avgMshrMissLatency::cpu.inst 72609.370107                       # average ReadReq mshr miss latency ((Tick/Count))
system.cpu.icache.ReadReq.avgMshrMissLatency::total 72609.370107                       # average ReadReq mshr miss latency ((Tick/Count))
system.cpu.icache.power_state.pwrStateResidencyTicks::UNDEFINED 1916150118047                       # Cumulative time (in ticks) in various power states (Tick)
system.cpu.icache.tags.tagsInUse           436.169593                       # Average ticks per tags in use ((Tick/Count))
system.cpu.icache.tags.totalRefs            296064203                       # Total number of references to valid blocks. (Count)
system.cpu.icache.tags.sampledRefs                843                       # Sample count of references to valid blocks. (Count)
system.cpu.icache.tags.avgRefs           351203.087782                       # Average number of references to valid blocks. ((Count/Count))
system.cpu.icache.tags.warmupTick               82000                       # The tick when the warmup percentage was hit. (Tick)
system.cpu.icache.tags.occupancies::cpu.inst   436.169593                       # Average occupied blocks per tick, per requestor ((Count/Tick))
system.cpu.icache.tags.avgOccs::cpu.inst     0.851894                       # Average percentage of cache occupancy ((Ratio/Tick))
system.cpu.icache.tags.avgOccs::total        0.851894                       # Average percentage of cache occupancy ((Ratio/Tick))
system.cpu.icache.tags.occupanciesTaskId::1024          491                       # Occupied blocks per task id (Count)
system.cpu.icache.tags.ageTaskId_1024::4          491                       # Occupied blocks per task id, per block age (Count)
system.cpu.icache.tags.ratioOccsTaskId::1024     0.958984                       # Ratio of occupied blocks and all blocks, per task id (Ratio)
system.cpu.icache.tags.tagAccesses         1184257655                       # Number of tag accesses (Count)
system.cpu.icache.tags.dataAccesses        1184257655                       # Number of data accesses (Count)
system.cpu.icache.tags.power_state.pwrStateResidencyTicks::UNDEFINED 1916150118047                       # Cumulative time (in ticks) in various power states (Tick)
system.cpu.mmu.alignFaults                          0                       # Number of MMU faults due to alignment restrictions (Count)
system.cpu.mmu.prefetchFaults                       0                       # Number of MMU faults due to prefetch (Count)
system.cpu.mmu.domainFaults                         0                       # Number of MMU faults due to domain restrictions (Count)
system.cpu.mmu.permsFaults                          0                       # Number of MMU faults due to permissions restrictions (Count)
system.cpu.mmu.dtb.readHits                         0                       # Read hits (Count)
system.cpu.mmu.dtb.readMisses                       0                       # Read misses (Count)
system.cpu.mmu.dtb.writeHits                        0                       # Write hits (Count)
system.cpu.mmu.dtb.writeMisses                      0                       # Write misses (Count)
system.cpu.mmu.dtb.inserts                          0                       # Number of times an entry is inserted into the TLB (Count)
system.cpu.mmu.dtb.flushTlb                         0                       # Number of times complete TLB was flushed (Count)
system.cpu.mmu.dtb.flushTlbMva                      0                       # Number of times TLB was flushed by MVA (Count)
system.cpu.mmu.dtb.flushTlbMvaAsid                  0                       # Number of times TLB was flushed by MVA & ASID (Count)
system.cpu.mmu.dtb.flushTlbAsid                     0                       # Number of times TLB was flushed by ASID (Count)
system.cpu.mmu.dtb.flushedEntries                   0                       # Number of entries that have been flushed from TLB (Count)
system.cpu.mmu.dtb.readAccesses                     0                       # Read accesses (Count)
system.cpu.mmu.dtb.writeAccesses                    0                       # Write accesses (Count)
system.cpu.mmu.dtb.hits                             0                       # Total TLB (inst and data) hits (Count)
system.cpu.mmu.dtb.misses                           0                       # Total TLB (inst and data) misses (Count)
system.cpu.mmu.dtb.accesses                         0                       # Total TLB (inst and data) accesses (Count)
system.cpu.mmu.dtb_walker.walks                     0                       # Table walker walks requested (Count)
system.cpu.mmu.dtb_walker.requestOrigin_Requested::Data            0                       # Table walker requests started/completed, data/inst (Count)
system.cpu.mmu.dtb_walker.requestOrigin_Requested::Inst            0                       # Table walker requests started/completed, data/inst (Count)
system.cpu.mmu.dtb_walker.requestOrigin_Requested::total            0                       # Table walker requests started/completed, data/inst (Count)
system.cpu.mmu.dtb_walker.requestOrigin_Completed::Data            0                       # Table walker requests started/completed, data/inst (Count)
system.cpu.mmu.dtb_walker.requestOrigin_Completed::Inst            0                       # Table walker requests started/completed, data/inst (Count)
system.cpu.mmu.dtb_walker.requestOrigin_Completed::total            0                       # Table walker requests started/completed, data/inst (Count)
system.cpu.mmu.dtb_walker.requestOrigin::total            0                       # Table walker requests started/completed, data/inst (Count)
system.cpu.mmu.dtb_walker.power_state.pwrStateResidencyTicks::UNDEFINED 1916150118047                       # Cumulative time (in ticks) in various power states (Tick)
system.cpu.mmu.itb.instHits                         0                       # Inst hits (Count)
system.cpu.mmu.itb.instMisses                       0                       # Inst misses (Count)
system.cpu.mmu.itb.inserts                          0                       # Number of times an entry is inserted into the TLB (Count)
system.cpu.mmu.itb.flushTlb                         0                       # Number of times complete TLB was flushed (Count)
system.cpu.mmu.itb.flushTlbMva                      0                       # Number of times TLB was flushed by MVA (Count)
system.cpu.mmu.itb.flushTlbMvaAsid                  0                       # Number of times TLB was flushed by MVA & ASID (Count)
system.cpu.mmu.itb.flushTlbAsid                     0                       # Number of times TLB was flushed by ASID (Count)
system.cpu.mmu.itb.flushedEntries                   0                       # Number of entries that have been flushed from TLB (Count)
system.cpu.mmu.itb.instAccesses                     0                       # Inst accesses (Count)
system.cpu.mmu.itb.hits                             0                       # Total TLB (inst and data) hits (Count)
system.cpu.mmu.itb.misses                           0                       # Total TLB (inst and data) misses (Count)
system.cpu.mmu.itb.accesses                         0                       # Total TLB (inst and data) accesses (Count)
system.cpu.mmu.itb_walker.walks                     0                       # Table walker walks requested (Count)
system.cpu.mmu.itb_walker.requestOrigin_Requested::Data            0                       # Table walker requests started/completed, data/inst (Count)
system.cpu.mmu.itb_walker.requestOrigin_Requested::Inst            0                       # Table walker requests started/completed, data/inst (Count)
system.cpu.mmu.itb_walker.requestOrigin_Requested::total            0                       # Table walker requests started/completed, data/inst (Count)
system.cpu.mmu.itb_walker.requestOrigin_Completed::Data            0                       # Table walker requests started/completed, data/inst (Count)
system.cpu.mmu.itb_walker.requestOrigin_Completed::Inst            0                       # Table walker requests started/completed, data/inst (Count)
system.cpu.mmu.itb_walker.requestOrigin_Completed::total            0                       # Table walker requests started/completed, data/inst (Count)
system.cpu.mmu.itb_walker.requestOrigin::total            0                       # Table walker requests started/completed, data/inst (Count)
system.cpu.mmu.itb_walker.power_state.pwrStateResidencyTicks::UNDEFINED 1916150118047                       # Cumulative time (in ticks) in various power states (Tick)
system.cpu.mmu.l2_shared.instHits                   0                       # Inst hits (Count)
system.cpu.mmu.l2_shared.instMisses                 0                       # Inst misses (Count)
system.cpu.mmu.l2_shared.inserts                    0                       # Number of times an entry is inserted into the TLB (Count)
system.cpu.mmu.l2_shared.flushTlb                   0                       # Number of times complete TLB was flushed (Count)
system.cpu.mmu.l2_shared.flushTlbMva                0                       # Number of times TLB was flushed by MVA (Count)
system.cpu.mmu.l2_shared.flushTlbMvaAsid            0                       # Number of times TLB was flushed by MVA & ASID (Count)
system.cpu.mmu.l2_shared.flushTlbAsid               0                       # Number of times TLB was flushed by ASID (Count)
system.cpu.mmu.l2_shared.flushedEntries             0                       # Number of entries that have been flushed from TLB (Count)
system.cpu.mmu.l2_shared.instAccesses               0                       # Inst accesses (Count)
system.cpu.mmu.l2_shared.hits                       0                       # Total TLB (inst and data) hits (Count)
system.cpu.mmu.l2_shared.misses                     0                       # Total TLB (inst and data) misses (Count)
system.cpu.mmu.l2_shared.accesses                   0                       # Total TLB (inst and data) accesses (Count)
system.cpu.mmu.stage2_dtb.readHits                  0                       # Read hits (Count)
system.cpu.mmu.stage2_dtb.readMisses                0                       # Read misses (Count)
system.cpu.mmu.stage2_dtb.writeHits                 0                       # Write hits (Count)
system.cpu.mmu.stage2_dtb.writeMisses               0                       # Write misses (Count)
system.cpu.mmu.stage2_dtb.inserts                   0                       # Number of times an entry is inserted into the TLB (Count)
system.cpu.mmu.stage2_dtb.flushTlb                  0                       # Number of times complete TLB was flushed (Count)
system.cpu.mmu.stage2_dtb.flushTlbMva               0                       # Number of times TLB was flushed by MVA (Count)
system.cpu.mmu.stage2_dtb.flushTlbMvaAsid            0                       # Number of times TLB was flushed by MVA & ASID (Count)
system.cpu.mmu.stage2_dtb.flushTlbAsid              0                       # Number of times TLB was flushed by ASID (Count)
system.cpu.mmu.stage2_dtb.flushedEntries            0                       # Number of entries that have been flushed from TLB (Count)
system.cpu.mmu.stage2_dtb.readAccesses              0                       # Read accesses (Count)
system.cpu.mmu.stage2_dtb.writeAccesses             0                       # Write accesses (Count)
system.cpu.mmu.stage2_dtb.hits                      0                       # Total TLB (inst and data) hits (Count)
system.cpu.mmu.stage2_dtb.misses                    0                       # Total TLB (inst and data) misses (Count)
system.cpu.mmu.stage2_dtb.accesses                  0                       # Total TLB (inst and data) accesses (Count)
system.cpu.mmu.stage2_dtb_walker.walks              0                       # Table walker walks requested (Count)
system.cpu.mmu.stage2_dtb_walker.requestOrigin_Requested::Data            0                       # Table walker requests started/completed, data/inst (Count)
system.cpu.mmu.stage2_dtb_walker.requestOrigin_Requested::Inst            0                       # Table walker requests started/completed, data/inst (Count)
system.cpu.mmu.stage2_dtb_walker.requestOrigin_Requested::total            0                       # Table walker requests started/completed, data/inst (Count)
system.cpu.mmu.stage2_dtb_walker.requestOrigin_Completed::Data            0                       # Table walker requests started/completed, data/inst (Count)
system.cpu.mmu.stage2_dtb_walker.requestOrigin_Completed::Inst            0                       # Table walker requests started/completed, data/inst (Count)
system.cpu.mmu.stage2_dtb_walker.requestOrigin_Completed::total            0                       # Table walker requests started/completed, data/inst (Count)
system.cpu.mmu.stage2_dtb_walker.requestOrigin::total            0                       # Table walker requests started/completed, data/inst (Count)
system.cpu.mmu.stage2_dtb_walker.power_state.pwrStateResidencyTicks::UNDEFINED 1916150118047                       # Cumulative time (in ticks) in various power states (Tick)
system.cpu.mmu.stage2_itb.instHits                  0                       # Inst hits (Count)
system.cpu.mmu.stage2_itb.instMisses                0                       # Inst misses (Count)
system.cpu.mmu.stage2_itb.inserts                   0                       # Number of times an entry is inserted into the TLB (Count)
system.cpu.mmu.stage2_itb.flushTlb                  0                       # Number of times complete TLB was flushed (Count)
system.cpu.mmu.stage2_itb.flushTlbMva               0                       # Number of times TLB was flushed by MVA (Count)
system.cpu.mmu.stage2_itb.flushTlbMvaAsid            0                       # Number of times TLB was flushed by MVA & ASID (Count)
system.cpu.mmu.stage2_itb.flushTlbAsid              0                       # Number of times TLB was flushed by ASID (Count)
system.cpu.mmu.stage2_itb.flushedEntries            0                       # Number of entries that have been flushed from TLB (Count)
system.cpu.mmu.stage2_itb.instAccesses              0                       # Inst accesses (Count)
system.cpu.mmu.stage2_itb.hits                      0                       # Total TLB (inst and data) hits (Count)
system.cpu.mmu.stage2_itb.misses                    0                       # Total TLB (inst and data) misses (Count)
system.cpu.mmu.stage2_itb.accesses                  0                       # Total TLB (inst and data) accesses (Count)
system.cpu.mmu.stage2_itb_walker.walks              0                       # Table walker walks requested (Count)
system.cpu.mmu.stage2_itb_walker.requestOrigin_Requested::Data            0                       # Table walker requests started/completed, data/inst (Count)
system.cpu.mmu.stage2_itb_walker.requestOrigin_Requested::Inst            0                       # Table walker requests started/completed, data/inst (Count)
system.cpu.mmu.stage2_itb_walker.requestOrigin_Requested::total            0                       # Table walker requests started/completed, data/inst (Count)
system.cpu.mmu.stage2_itb_walker.requestOrigin_Completed::Data            0                       # Table walker requests started/completed, data/inst (Count)
system.cpu.mmu.stage2_itb_walker.requestOrigin_Completed::Inst            0                       # Table walker requests started/completed, data/inst (Count)
system.cpu.mmu.stage2_itb_walker.requestOrigin_Completed::total            0                       # Table walker requests started/completed, data/inst (Count)
system.cpu.mmu.stage2_itb_walker.requestOrigin::total            0                       # Table walker requests started/completed, data/inst (Count)
system.cpu.mmu.stage2_itb_walker.power_state.pwrStateResidencyTicks::UNDEFINED 1916150118047                       # Cumulative time (in ticks) in various power states (Tick)
system.cpu.power_state.pwrStateResidencyTicks::ON 1916150118047                       # Cumulative time (in ticks) in various power states (Tick)
system.cpu.thread_0.numInsts               1000000001                       # Number of Instructions committed (Count)
system.cpu.thread_0.numOps                 1160088218                       # Number of Ops committed (Count)
system.cpu.thread_0.numMemRefs                      0                       # Number of Memory References (Count)
system.cpu.workload.numSyscalls                   420                       # Number of system calls (Count)
system.cpu_clk_domain.clock                      1111                       # Clock period in ticks (Tick)
system.cpu_clk_domain.voltage_domain.voltage            1                       # Voltage in Volts (Volt)
system.l2bus.transDist::ReadResp             14408095                       # Transaction distribution (Count)
system.l2bus.transDist::WritebackDirty       15650035                       # Transaction distribution (Count)
system.l2bus.transDist::CleanEvict           15801262                       # Transaction distribution (Count)
system.l2bus.transDist::ReadExReq             7542426                       # Transaction distribution (Count)
system.l2bus.transDist::ReadExResp            7542426                       # Transaction distribution (Count)
system.l2bus.transDist::ReadSharedReq        14408095                       # Transaction distribution (Count)
system.l2bus.pktCount_system.cpu.icache.mem_side_port::system.l2cache.cpu_side_port         2038                       # Packet count per connected requestor and responder (Count)
system.l2bus.pktCount_system.cpu.dcache.mem_side_port::system.l2cache.cpu_side_port     65848522                       # Packet count per connected requestor and responder (Count)
system.l2bus.pktCount::total                 65850560                       # Packet count per connected requestor and responder (Count)
system.l2bus.pktSize_system.cpu.icache.mem_side_port::system.l2cache.cpu_side_port        53952                       # Cumulative packet size per connected requestor and responder (Byte)
system.l2bus.pktSize_system.cpu.dcache.mem_side_port::system.l2cache.cpu_side_port   2072646400                       # Cumulative packet size per connected requestor and responder (Byte)
system.l2bus.pktSize::total                2072700352                       # Cumulative packet size per connected requestor and responder (Byte)
system.l2bus.snoops                           9501779                       # Total snoops (Count)
system.l2bus.snoopTraffic                   333735232                       # Total snoop traffic (Byte)
system.l2bus.snoopFanout::samples            31452300                       # Request fanout histogram (Count)
system.l2bus.snoopFanout::mean               0.000155                       # Request fanout histogram (Count)
system.l2bus.snoopFanout::stdev              0.012432                       # Request fanout histogram (Count)
system.l2bus.snoopFanout::underflows                0      0.00%      0.00% # Request fanout histogram (Count)
system.l2bus.snoopFanout::0                  31447438     99.98%     99.98% # Request fanout histogram (Count)
system.l2bus.snoopFanout::1                      4862      0.02%    100.00% # Request fanout histogram (Count)
system.l2bus.snoopFanout::2                         0      0.00%    100.00% # Request fanout histogram (Count)
system.l2bus.snoopFanout::overflows                 0      0.00%    100.00% # Request fanout histogram (Count)
system.l2bus.snoopFanout::min_value                 0                       # Request fanout histogram (Count)
system.l2bus.snoopFanout::max_value                 1                       # Request fanout histogram (Count)
system.l2bus.snoopFanout::total              31452300                       # Request fanout histogram (Count)
system.l2bus.power_state.pwrStateResidencyTicks::UNDEFINED 1916150118047                       # Cumulative time (in ticks) in various power states (Tick)
system.l2bus.reqLayer0.occupancy          42908365036                       # Layer occupancy (ticks) (Tick)
system.l2bus.reqLayer0.utilization                0.0                       # Layer utilization (Ratio)
system.l2bus.respLayer0.occupancy             1264500                       # Layer occupancy (ticks) (Tick)
system.l2bus.respLayer0.utilization               0.0                       # Layer utilization (Ratio)
system.l2bus.respLayer1.occupancy         32924523487                       # Layer occupancy (ticks) (Tick)
system.l2bus.respLayer1.utilization               0.0                       # Layer utilization (Ratio)
system.l2bus.snoop_filter.totRequests        43900039                       # Total number of requests made to the snoop filter. (Count)
system.l2bus.snoop_filter.hitSingleRequests     21949519                       # Number of requests hitting in the snoop filter with a single holder of the requested data. (Count)
system.l2bus.snoop_filter.hitMultiRequests         4010                       # Number of requests hitting in the snoop filter with multiple (>1) holders of the requested data. (Count)
system.l2bus.snoop_filter.totSnoops               851                       # Total number of snoops made to the snoop filter. (Count)
system.l2bus.snoop_filter.hitSingleSnoops          851                       # Number of snoops hitting in the snoop filter with a single holder of the requested data. (Count)
system.l2bus.snoop_filter.hitMultiSnoops            0                       # Number of snoops hitting in the snoop filter with multiple (>1) holders of the requested data. (Count)
system.l2cache.demandHits::cpu.inst                41                       # number of demand (read+write) hits (Count)
system.l2cache.demandHits::cpu.data          12415932                       # number of demand (read+write) hits (Count)
system.l2cache.demandHits::total             12415973                       # number of demand (read+write) hits (Count)
system.l2cache.overallHits::cpu.inst               41                       # number of overall hits (Count)
system.l2cache.overallHits::cpu.data         12415932                       # number of overall hits (Count)
system.l2cache.overallHits::total            12415973                       # number of overall hits (Count)
system.l2cache.demandMisses::cpu.inst             802                       # number of demand (read+write) misses (Count)
system.l2cache.demandMisses::cpu.data         9533746                       # number of demand (read+write) misses (Count)
system.l2cache.demandMisses::total            9534548                       # number of demand (read+write) misses (Count)
system.l2cache.overallMisses::cpu.inst            802                       # number of overall misses (Count)
system.l2cache.overallMisses::cpu.data        9533746                       # number of overall misses (Count)
system.l2cache.overallMisses::total           9534548                       # number of overall misses (Count)
system.l2cache.demandMissLatency::cpu.inst     58367770                       # number of demand (read+write) miss ticks (Tick)
system.l2cache.demandMissLatency::cpu.data 718205720220                       # number of demand (read+write) miss ticks (Tick)
system.l2cache.demandMissLatency::total  718264087990                       # number of demand (read+write) miss ticks (Tick)
system.l2cache.overallMissLatency::cpu.inst     58367770                       # number of overall miss ticks (Tick)
system.l2cache.overallMissLatency::cpu.data 718205720220                       # number of overall miss ticks (Tick)
system.l2cache.overallMissLatency::total 718264087990                       # number of overall miss ticks (Tick)
system.l2cache.demandAccesses::cpu.inst           843                       # number of demand (read+write) accesses (Count)
system.l2cache.demandAccesses::cpu.data      21949678                       # number of demand (read+write) accesses (Count)
system.l2cache.demandAccesses::total         21950521                       # number of demand (read+write) accesses (Count)
system.l2cache.overallAccesses::cpu.inst          843                       # number of overall (read+write) accesses (Count)
system.l2cache.overallAccesses::cpu.data     21949678                       # number of overall (read+write) accesses (Count)
system.l2cache.overallAccesses::total        21950521                       # number of overall (read+write) accesses (Count)
system.l2cache.demandMissRate::cpu.inst      0.951364                       # miss rate for demand accesses (Ratio)
system.l2cache.demandMissRate::cpu.data      0.434346                       # miss rate for demand accesses (Ratio)
system.l2cache.demandMissRate::total         0.434365                       # miss rate for demand accesses (Ratio)
system.l2cache.overallMissRate::cpu.inst     0.951364                       # miss rate for overall accesses (Ratio)
system.l2cache.overallMissRate::cpu.data     0.434346                       # miss rate for overall accesses (Ratio)
system.l2cache.overallMissRate::total        0.434365                       # miss rate for overall accesses (Ratio)
system.l2cache.demandAvgMissLatency::cpu.inst 72777.768080                       # average overall miss latency in ticks ((Tick/Count))
system.l2cache.demandAvgMissLatency::cpu.data 75333.003441                       # average overall miss latency in ticks ((Tick/Count))
system.l2cache.demandAvgMissLatency::total 75332.788507                       # average overall miss latency in ticks ((Tick/Count))
system.l2cache.overallAvgMissLatency::cpu.inst 72777.768080                       # average overall miss latency ((Tick/Count))
system.l2cache.overallAvgMissLatency::cpu.data 75333.003441                       # average overall miss latency ((Tick/Count))
system.l2cache.overallAvgMissLatency::total 75332.788507                       # average overall miss latency ((Tick/Count))
system.l2cache.blockedCycles::no_mshrs              0                       # number of cycles access was blocked (Cycle)
system.l2cache.blockedCycles::no_targets            0                       # number of cycles access was blocked (Cycle)
system.l2cache.blockedCauses::no_mshrs              0                       # number of times access was blocked (Count)
system.l2cache.blockedCauses::no_targets            0                       # number of times access was blocked (Count)
system.l2cache.avgBlocked::no_mshrs               nan                       # average number of cycles each access was blocked ((Cycle/Count))
system.l2cache.avgBlocked::no_targets             nan                       # average number of cycles each access was blocked ((Cycle/Count))
system.l2cache.writebacks::writebacks         5214613                       # number of writebacks (Count)
system.l2cache.writebacks::total              5214613                       # number of writebacks (Count)
system.l2cache.demandMshrHits::cpu.data            13                       # number of demand (read+write) MSHR hits (Count)
system.l2cache.demandMshrHits::total               13                       # number of demand (read+write) MSHR hits (Count)
system.l2cache.overallMshrHits::cpu.data           13                       # number of overall MSHR hits (Count)
system.l2cache.overallMshrHits::total              13                       # number of overall MSHR hits (Count)
system.l2cache.demandMshrMisses::cpu.inst          802                       # number of demand (read+write) MSHR misses (Count)
system.l2cache.demandMshrMisses::cpu.data      9533733                       # number of demand (read+write) MSHR misses (Count)
system.l2cache.demandMshrMisses::total        9534535                       # number of demand (read+write) MSHR misses (Count)
system.l2cache.overallMshrMisses::cpu.inst          802                       # number of overall MSHR misses (Count)
system.l2cache.overallMshrMisses::cpu.data      9533733                       # number of overall MSHR misses (Count)
system.l2cache.overallMshrMisses::total       9534535                       # number of overall MSHR misses (Count)
system.l2cache.demandMshrMissLatency::cpu.inst     50347770                       # number of demand (read+write) MSHR miss ticks (Tick)
system.l2cache.demandMshrMissLatency::cpu.data 622867617929                       # number of demand (read+write) MSHR miss ticks (Tick)
system.l2cache.demandMshrMissLatency::total 622917965699                       # number of demand (read+write) MSHR miss ticks (Tick)
system.l2cache.overallMshrMissLatency::cpu.inst     50347770                       # number of overall MSHR miss ticks (Tick)
system.l2cache.overallMshrMissLatency::cpu.data 622867617929                       # number of overall MSHR miss ticks (Tick)
system.l2cache.overallMshrMissLatency::total 622917965699                       # number of overall MSHR miss ticks (Tick)
system.l2cache.demandMshrMissRate::cpu.inst     0.951364                       # mshr miss ratio for demand accesses (Ratio)
system.l2cache.demandMshrMissRate::cpu.data     0.434345                       # mshr miss ratio for demand accesses (Ratio)
system.l2cache.demandMshrMissRate::total     0.434365                       # mshr miss ratio for demand accesses (Ratio)
system.l2cache.overallMshrMissRate::cpu.inst     0.951364                       # mshr miss ratio for overall accesses (Ratio)
system.l2cache.overallMshrMissRate::cpu.data     0.434345                       # mshr miss ratio for overall accesses (Ratio)
system.l2cache.overallMshrMissRate::total     0.434365                       # mshr miss ratio for overall accesses (Ratio)
system.l2cache.demandAvgMshrMissLatency::cpu.inst 62777.768080                       # average overall mshr miss latency ((Tick/Count))
system.l2cache.demandAvgMshrMissLatency::cpu.data 65333.025157                       # average overall mshr miss latency ((Tick/Count))
system.l2cache.demandAvgMshrMissLatency::total 65332.810221                       # average overall mshr miss latency ((Tick/Count))
system.l2cache.overallAvgMshrMissLatency::cpu.inst 62777.768080                       # average overall mshr miss latency ((Tick/Count))
system.l2cache.overallAvgMshrMissLatency::cpu.data 65333.025157                       # average overall mshr miss latency ((Tick/Count))
system.l2cache.overallAvgMshrMissLatency::total 65332.810221                       # average overall mshr miss latency ((Tick/Count))
system.l2cache.replacements                   9501779                       # number of replacements (Count)
system.l2cache.CleanEvict.mshrMisses::writebacks          295                       # number of CleanEvict MSHR misses (Count)
system.l2cache.CleanEvict.mshrMisses::total          295                       # number of CleanEvict MSHR misses (Count)
system.l2cache.CleanEvict.mshrMissRate::writebacks          inf                       # mshr miss rate for CleanEvict accesses (Ratio)
system.l2cache.CleanEvict.mshrMissRate::total          inf                       # mshr miss rate for CleanEvict accesses (Ratio)
system.l2cache.ReadExReq.hits::cpu.data       2462185                       # number of ReadExReq hits (Count)
system.l2cache.ReadExReq.hits::total          2462185                       # number of ReadExReq hits (Count)
system.l2cache.ReadExReq.misses::cpu.data      5080241                       # number of ReadExReq misses (Count)
system.l2cache.ReadExReq.misses::total        5080241                       # number of ReadExReq misses (Count)
system.l2cache.ReadExReq.missLatency::cpu.data 384960744960                       # number of ReadExReq miss ticks (Tick)
system.l2cache.ReadExReq.missLatency::total 384960744960                       # number of ReadExReq miss ticks (Tick)
system.l2cache.ReadExReq.accesses::cpu.data      7542426                       # number of ReadExReq accesses(hits+misses) (Count)
system.l2cache.ReadExReq.accesses::total      7542426                       # number of ReadExReq accesses(hits+misses) (Count)
system.l2cache.ReadExReq.missRate::cpu.data     0.673555                       # miss rate for ReadExReq accesses (Ratio)
system.l2cache.ReadExReq.missRate::total     0.673555                       # miss rate for ReadExReq accesses (Ratio)
system.l2cache.ReadExReq.avgMissLatency::cpu.data 75776.079316                       # average ReadExReq miss latency ((Tick/Count))
system.l2cache.ReadExReq.avgMissLatency::total 75776.079316                       # average ReadExReq miss latency ((Tick/Count))
system.l2cache.ReadExReq.mshrMisses::cpu.data      5080241                       # number of ReadExReq MSHR misses (Count)
system.l2cache.ReadExReq.mshrMisses::total      5080241                       # number of ReadExReq MSHR misses (Count)
system.l2cache.ReadExReq.mshrMissLatency::cpu.data 334158334960                       # number of ReadExReq MSHR miss ticks (Tick)
system.l2cache.ReadExReq.mshrMissLatency::total 334158334960                       # number of ReadExReq MSHR miss ticks (Tick)
system.l2cache.ReadExReq.mshrMissRate::cpu.data     0.673555                       # mshr miss rate for ReadExReq accesses (Ratio)
system.l2cache.ReadExReq.mshrMissRate::total     0.673555                       # mshr miss rate for ReadExReq accesses (Ratio)
system.l2cache.ReadExReq.avgMshrMissLatency::cpu.data 65776.079316                       # average ReadExReq mshr miss latency ((Tick/Count))
system.l2cache.ReadExReq.avgMshrMissLatency::total 65776.079316                       # average ReadExReq mshr miss latency ((Tick/Count))
system.l2cache.ReadSharedReq.hits::cpu.inst           41                       # number of ReadSharedReq hits (Count)
system.l2cache.ReadSharedReq.hits::cpu.data      9953747                       # number of ReadSharedReq hits (Count)
system.l2cache.ReadSharedReq.hits::total      9953788                       # number of ReadSharedReq hits (Count)
system.l2cache.ReadSharedReq.misses::cpu.inst          802                       # number of ReadSharedReq misses (Count)
system.l2cache.ReadSharedReq.misses::cpu.data      4453505                       # number of ReadSharedReq misses (Count)
system.l2cache.ReadSharedReq.misses::total      4454307                       # number of ReadSharedReq misses (Count)
system.l2cache.ReadSharedReq.missLatency::cpu.inst     58367770                       # number of ReadSharedReq miss ticks (Tick)
system.l2cache.ReadSharedReq.missLatency::cpu.data 333244975260                       # number of ReadSharedReq miss ticks (Tick)
system.l2cache.ReadSharedReq.missLatency::total 333303343030                       # number of ReadSharedReq miss ticks (Tick)
system.l2cache.ReadSharedReq.accesses::cpu.inst          843                       # number of ReadSharedReq accesses(hits+misses) (Count)
system.l2cache.ReadSharedReq.accesses::cpu.data     14407252                       # number of ReadSharedReq accesses(hits+misses) (Count)
system.l2cache.ReadSharedReq.accesses::total     14408095                       # number of ReadSharedReq accesses(hits+misses) (Count)
system.l2cache.ReadSharedReq.missRate::cpu.inst     0.951364                       # miss rate for ReadSharedReq accesses (Ratio)
system.l2cache.ReadSharedReq.missRate::cpu.data     0.309116                       # miss rate for ReadSharedReq accesses (Ratio)
system.l2cache.ReadSharedReq.missRate::total     0.309153                       # miss rate for ReadSharedReq accesses (Ratio)
system.l2cache.ReadSharedReq.avgMissLatency::cpu.inst 72777.768080                       # average ReadSharedReq miss latency ((Tick/Count))
system.l2cache.ReadSharedReq.avgMissLatency::cpu.data 74827.574070                       # average ReadSharedReq miss latency ((Tick/Count))
system.l2cache.ReadSharedReq.avgMissLatency::total 74827.205002                       # average ReadSharedReq miss latency ((Tick/Count))
system.l2cache.ReadSharedReq.mshrHits::cpu.data           13                       # number of ReadSharedReq MSHR hits (Count)
system.l2cache.ReadSharedReq.mshrHits::total           13                       # number of ReadSharedReq MSHR hits (Count)
system.l2cache.ReadSharedReq.mshrMisses::cpu.inst          802                       # number of ReadSharedReq MSHR misses (Count)
system.l2cache.ReadSharedReq.mshrMisses::cpu.data      4453492                       # number of ReadSharedReq MSHR misses (Count)
system.l2cache.ReadSharedReq.mshrMisses::total      4454294                       # number of ReadSharedReq MSHR misses (Count)
system.l2cache.ReadSharedReq.mshrMissLatency::cpu.inst     50347770                       # number of ReadSharedReq MSHR miss ticks (Tick)
system.l2cache.ReadSharedReq.mshrMissLatency::cpu.data 288709282969                       # number of ReadSharedReq MSHR miss ticks (Tick)
system.l2cache.ReadSharedReq.mshrMissLatency::total 288759630739                       # number of ReadSharedReq MSHR miss ticks (Tick)
system.l2cache.ReadSharedReq.mshrMissRate::cpu.inst     0.951364                       # mshr miss rate for ReadSharedReq accesses (Ratio)
system.l2cache.ReadSharedReq.mshrMissRate::cpu.data     0.309115                       # mshr miss rate for ReadSharedReq accesses (Ratio)
system.l2cache.ReadSharedReq.mshrMissRate::total     0.309152                       # mshr miss rate for ReadSharedReq accesses (Ratio)
system.l2cache.ReadSharedReq.avgMshrMissLatency::cpu.inst 62777.768080                       # average ReadSharedReq mshr miss latency ((Tick/Count))
system.l2cache.ReadSharedReq.avgMshrMissLatency::cpu.data 64827.619084                       # average ReadSharedReq mshr miss latency ((Tick/Count))
system.l2cache.ReadSharedReq.avgMshrMissLatency::total 64827.250006                       # average ReadSharedReq mshr miss latency ((Tick/Count))
system.l2cache.WritebackDirty.hits::writebacks     10435422                       # number of WritebackDirty hits (Count)
system.l2cache.WritebackDirty.hits::total     10435422                       # number of WritebackDirty hits (Count)
system.l2cache.WritebackDirty.accesses::writebacks     10435422                       # number of WritebackDirty accesses(hits+misses) (Count)
system.l2cache.WritebackDirty.accesses::total     10435422                       # number of WritebackDirty accesses(hits+misses) (Count)
system.l2cache.power_state.pwrStateResidencyTicks::UNDEFINED 1916150118047                       # Cumulative time (in ticks) in various power states (Tick)
system.l2cache.tags.tagsInUse            32155.398424                       # Average ticks per tags in use ((Tick/Count))
system.l2cache.tags.totalRefs                43895721                       # Total number of references to valid blocks. (Count)
system.l2cache.tags.sampledRefs               9534547                       # Sample count of references to valid blocks. (Count)
system.l2cache.tags.avgRefs                  4.603860                       # Average number of references to valid blocks. ((Count/Count))
system.l2cache.tags.warmupTick                  71500                       # The tick when the warmup percentage was hit. (Tick)
system.l2cache.tags.occupancies::writebacks     0.314006                       # Average occupied blocks per tick, per requestor ((Count/Tick))
system.l2cache.tags.occupancies::cpu.inst    19.028845                       # Average occupied blocks per tick, per requestor ((Count/Tick))
system.l2cache.tags.occupancies::cpu.data 32136.055573                       # Average occupied blocks per tick, per requestor ((Count/Tick))
system.l2cache.tags.avgOccs::writebacks      0.000010                       # Average percentage of cache occupancy ((Ratio/Tick))
system.l2cache.tags.avgOccs::cpu.inst        0.000581                       # Average percentage of cache occupancy ((Ratio/Tick))
system.l2cache.tags.avgOccs::cpu.data        0.980715                       # Average percentage of cache occupancy ((Ratio/Tick))
system.l2cache.tags.avgOccs::total           0.981305                       # Average percentage of cache occupancy ((Ratio/Tick))
system.l2cache.tags.occupanciesTaskId::1024        32768                       # Occupied blocks per task id (Count)
system.l2cache.tags.ageTaskId_1024::2             757                       # Occupied blocks per task id, per block age (Count)
system.l2cache.tags.ageTaskId_1024::3            3508                       # Occupied blocks per task id, per block age (Count)
[...]
system.mem_ctrl.dram.perBankRdBursts::10       296953                       # Per bank write bursts (Count)
system.mem_ctrl.dram.perBankRdBursts::11       297259                       # Per bank write bursts (Count)
system.mem_ctrl.dram.perBankRdBursts::12       295964                       # Per bank write bursts (Count)
system.mem_ctrl.dram.perBankRdBursts::13       296965                       # Per bank write bursts (Count)
system.mem_ctrl.dram.perBankRdBursts::14       296190                       # Per bank write bursts (Count)
system.mem_ctrl.dram.perBankRdBursts::15       298072                       # Per bank write bursts (Count)
system.mem_ctrl.dram.perBankRdBursts::16       297428                       # Per bank write bursts (Count)
system.mem_ctrl.dram.perBankRdBursts::17       294816                       # Per bank write bursts (Count)
system.mem_ctrl.dram.perBankRdBursts::18       296776                       # Per bank write bursts (Count)
system.mem_ctrl.dram.perBankRdBursts::19       298803                       # Per bank write bursts (Count)
system.mem_ctrl.dram.perBankRdBursts::20       296087                       # Per bank write bursts (Count)
system.mem_ctrl.dram.perBankRdBursts::21       295905                       # Per bank write bursts (Count)
system.mem_ctrl.dram.perBankRdBursts::22       296149                       # Per bank write bursts (Count)
system.mem_ctrl.dram.perBankRdBursts::23       296250                       # Per bank write bursts (Count)
system.mem_ctrl.dram.perBankRdBursts::24       296935                       # Per bank write bursts (Count)
system.mem_ctrl.dram.perBankRdBursts::25       296047                       # Per bank write bursts (Count)
system.mem_ctrl.dram.perBankRdBursts::26       296340                       # Per bank write bursts (Count)
system.mem_ctrl.dram.perBankRdBursts::27       293985                       # Per bank write bursts (Count)
system.mem_ctrl.dram.perBankRdBursts::28       300181                       # Per bank write bursts (Count)
system.mem_ctrl.dram.perBankRdBursts::29       301566                       # Per bank write bursts (Count)
system.mem_ctrl.dram.perBankRdBursts::30       300214                       # Per bank write bursts (Count)
system.mem_ctrl.dram.perBankRdBursts::31       298643                       # Per bank write bursts (Count)
system.mem_ctrl.dram.perBankWrBursts::0        163119                       # Per bank write bursts (Count)
system.mem_ctrl.dram.perBankWrBursts::1        164699                       # Per bank write bursts (Count)
system.mem_ctrl.dram.perBankWrBursts::2        163835                       # Per bank write bursts (Count)
system.mem_ctrl.dram.perBankWrBursts::3        163873                       # Per bank write bursts (Count)
system.mem_ctrl.dram.perBankWrBursts::4        164382                       # Per bank write bursts (Count)
system.mem_ctrl.dram.perBankWrBursts::5        163956                       # Per bank write bursts (Count)
system.mem_ctrl.dram.perBankWrBursts::6        164840                       # Per bank write bursts (Count)
system.mem_ctrl.dram.perBankWrBursts::7        163882                       # Per bank write bursts (Count)
system.mem_ctrl.dram.perBankWrBursts::8        163736                       # Per bank write bursts (Count)
system.mem_ctrl.dram.perBankWrBursts::9        162826                       # Per bank write bursts (Count)
system.mem_ctrl.dram.perBankWrBursts::10       162773                       # Per bank write bursts (Count)
system.mem_ctrl.dram.perBankWrBursts::11       162520                       # Per bank write bursts (Count)
system.mem_ctrl.dram.perBankWrBursts::12       162472                       # Per bank write bursts (Count)
system.mem_ctrl.dram.perBankWrBursts::13       163222                       # Per bank write bursts (Count)
system.mem_ctrl.dram.perBankWrBursts::14       162852                       # Per bank write bursts (Count)
system.mem_ctrl.dram.perBankWrBursts::15       163402                       # Per bank write bursts (Count)
system.mem_ctrl.dram.perBankWrBursts::16       163339                       # Per bank write bursts (Count)
system.mem_ctrl.dram.perBankWrBursts::17       161795                       # Per bank write bursts (Count)
system.mem_ctrl.dram.perBankWrBursts::18       162986                       # Per bank write bursts (Count)
system.mem_ctrl.dram.perBankWrBursts::19       163270                       # Per bank write bursts (Count)
system.mem_ctrl.dram.perBankWrBursts::20       162575                       # Per bank write bursts (Count)
system.mem_ctrl.dram.perBankWrBursts::21       161081                       # Per bank write bursts (Count)
system.mem_ctrl.dram.perBankWrBursts::22       161756                       # Per bank write bursts (Count)
system.mem_ctrl.dram.perBankWrBursts::23       160804                       # Per bank write bursts (Count)
system.mem_ctrl.dram.perBankWrBursts::24       162149                       # Per bank write bursts (Count)
system.mem_ctrl.dram.perBankWrBursts::25       161042                       # Per bank write bursts (Count)
system.mem_ctrl.dram.perBankWrBursts::26       161603                       # Per bank write bursts (Count)
system.mem_ctrl.dram.perBankWrBursts::27       159744                       # Per bank write bursts (Count)
system.mem_ctrl.dram.perBankWrBursts::28       164307                       # Per bank write bursts (Count)
system.mem_ctrl.dram.perBankWrBursts::29       164339                       # Per bank write bursts (Count)
system.mem_ctrl.dram.perBankWrBursts::30       164233                       # Per bank write bursts (Count)
system.mem_ctrl.dram.perBankWrBursts::31       163139                       # Per bank write bursts (Count)
system.mem_ctrl.dram.totQLat             109613503909                       # Total ticks spent queuing (Tick)
system.mem_ctrl.dram.totBusLat            31760094212                       # Total ticks spent in databus transfers (Tick)
system.mem_ctrl.dram.totMemAccLat        276344466681                       # Total ticks spent from burst creation until serviced by the DRAM (Tick)
system.mem_ctrl.dram.avgQLat                 11499.72                       # Average queueing delay per DRAM burst ((Tick/Count))
system.mem_ctrl.dram.avgBusLat                3332.00                       # Average bus latency per DRAM burst ((Tick/Count))
system.mem_ctrl.dram.avgMemAccLat            28991.72                       # Average memory access latency per DRAM burst ((Tick/Count))
system.mem_ctrl.dram.readRowHits              8370586                       # Number of row buffer hits during reads (Count)
system.mem_ctrl.dram.writeRowHits             4462268                       # Number of row buffer hits during writes (Count)
system.mem_ctrl.dram.readRowHitRate             87.82                       # Row buffer hit rate for reads (Ratio)
system.mem_ctrl.dram.writeRowHitRate            85.57                       # Row buffer hit rate for writes (Ratio)
system.mem_ctrl.dram.bytesPerActivate::samples      1913538                       # Bytes accessed per row activation (Byte)
system.mem_ctrl.dram.bytesPerActivate::mean   493.206348                       # Bytes accessed per row activation (Byte)
system.mem_ctrl.dram.bytesPerActivate::gmean   309.164749                       # Bytes accessed per row activation (Byte)
system.mem_ctrl.dram.bytesPerActivate::stdev   374.951400                       # Bytes accessed per row activation (Byte)
system.mem_ctrl.dram.bytesPerActivate::0-127       505171     26.40%     26.40% # Bytes accessed per row activation (Byte)
system.mem_ctrl.dram.bytesPerActivate::128-255       197686     10.33%     36.73% # Bytes accessed per row activation (Byte)
system.mem_ctrl.dram.bytesPerActivate::256-383        80730      4.22%     40.95% # Bytes accessed per row activation (Byte)
system.mem_ctrl.dram.bytesPerActivate::384-511       120088      6.28%     47.23% # Bytes accessed per row activation (Byte)
system.mem_ctrl.dram.bytesPerActivate::512-639       320500     16.75%     63.97% # Bytes accessed per row activation (Byte)
system.mem_ctrl.dram.bytesPerActivate::640-767       138513      7.24%     71.21% # Bytes accessed per row activation (Byte)
system.mem_ctrl.dram.bytesPerActivate::768-895        46934      2.45%     73.67% # Bytes accessed per row activation (Byte)
system.mem_ctrl.dram.bytesPerActivate::896-1023        38320      2.00%     75.67% # Bytes accessed per row activation (Byte)
system.mem_ctrl.dram.bytesPerActivate::1024-1151       465596     24.33%    100.00% # Bytes accessed per row activation (Byte)
system.mem_ctrl.dram.bytesPerActivate::total      1913538                       # Bytes accessed per row activation (Byte)
system.mem_ctrl.dram.bytesRead              610037824                       # Total bytes read (Byte)
system.mem_ctrl.dram.bytesWritten           333731264                       # Total bytes written (Byte)
system.mem_ctrl.dram.avgRdBW               318.366405                       # Average DRAM read bandwidth in MiBytes/s ((Byte/Second))
system.mem_ctrl.dram.avgWrBW               174.167598                       # Average DRAM write bandwidth in MiBytes/s ((Byte/Second))
system.mem_ctrl.dram.peakBW                  19207.00                       # Theoretical peak bandwidth in MiByte/s ((Byte/Second))
system.mem_ctrl.dram.busUtil                     2.56                       # Data bus utilization in percentage (Ratio)
system.mem_ctrl.dram.busUtilRead                 1.66                       # Data bus utilization in percentage for reads (Ratio)
system.mem_ctrl.dram.busUtilWrite                0.91                       # Data bus utilization in percentage for writes (Ratio)
system.mem_ctrl.dram.pageHitRate                87.02                       # Row buffer hit rate, read and write combined (Ratio)
system.mem_ctrl.dram.power_state.pwrStateResidencyTicks::UNDEFINED 1916150118047                       # Cumulative time (in ticks) in various power states (Tick)
system.mem_ctrl.dram.rank0.actEnergy     3006926028.287109                       # Energy for activate commands per rank (pJ) (Joule)
system.mem_ctrl.dram.rank0.preEnergy     3997669604.271468                       # Energy for precharge commands per rank (pJ) (Joule)
system.mem_ctrl.dram.rank0.readEnergy    20088174442.824722                       # Energy for read commands per rank (pJ) (Joule)
system.mem_ctrl.dram.rank0.writeEnergy   9833687590.943363                       # Energy for write commands per rank (pJ) (Joule)
system.mem_ctrl.dram.rank0.refreshEnergy 340951131696.714050                       # Energy for refresh commands per rank (pJ) (Joule)
system.mem_ctrl.dram.rank0.actBackEnergy 583208313597.688599                       # Energy for active background per rank (pJ) (Joule)
system.mem_ctrl.dram.rank0.preBackEnergy 802747934765.891724                       # Energy for precharge background per rank (pJ) (Joule)
system.mem_ctrl.dram.rank0.actPowerDownEnergy            0                       # Energy for active power-down per rank (pJ) (Joule)
system.mem_ctrl.dram.rank0.prePowerDownEnergy            0                       # Energy for precharge power-down per rank (pJ) (Joule)
system.mem_ctrl.dram.rank0.selfRefreshEnergy            0                       # Energy for self refresh per rank (pJ) (Joule)
system.mem_ctrl.dram.rank0.totalEnergy   1763833837726.316406                       # Total energy per rank (pJ) (Joule)
system.mem_ctrl.dram.rank0.averagePower    920.509213                       # Core power per rank (mW) (Watt)
system.mem_ctrl.dram.rank0.totalIdleTime            0                       # Total Idle time Per DRAM Rank (Tick)
system.mem_ctrl.dram.rank0.pwrStateTime::IDLE 1224155685245                       # Time in different power states (Tick)
system.mem_ctrl.dram.rank0.pwrStateTime::REF  86137450000                       # Time in different power states (Tick)
system.mem_ctrl.dram.rank0.pwrStateTime::SREF            0                       # Time in different power states (Tick)
system.mem_ctrl.dram.rank0.pwrStateTime::PRE_PDN            0                       # Time in different power states (Tick)
system.mem_ctrl.dram.rank0.pwrStateTime::ACT 605856982802                       # Time in different power states (Tick)
system.mem_ctrl.dram.rank0.pwrStateTime::ACT_PDN            0                       # Time in different power states (Tick)
system.mem_ctrl.dram.rank1.actEnergy     2960924436.287531                       # Energy for activate commands per rank (pJ) (Joule)
system.mem_ctrl.dram.rank1.preEnergy     3936511077.471883                       # Energy for precharge commands per rank (pJ) (Joule)
system.mem_ctrl.dram.rank1.readEnergy    20005768490.396721                       # Energy for read commands per rank (pJ) (Joule)
system.mem_ctrl.dram.rank1.writeEnergy   9765181484.351778                       # Energy for write commands per rank (pJ) (Joule)
system.mem_ctrl.dram.rank1.refreshEnergy 340951131696.714050                       # Energy for refresh commands per rank (pJ) (Joule)
system.mem_ctrl.dram.rank1.actBackEnergy 566091887672.128662                       # Energy for active background per rank (pJ) (Joule)
system.mem_ctrl.dram.rank1.preBackEnergy 815899538867.095825                       # Energy for precharge background per rank (pJ) (Joule)
system.mem_ctrl.dram.rank1.actPowerDownEnergy            0                       # Energy for active power-down per rank (pJ) (Joule)
system.mem_ctrl.dram.rank1.prePowerDownEnergy            0                       # Energy for precharge power-down per rank (pJ) (Joule)
system.mem_ctrl.dram.rank1.selfRefreshEnergy            0                       # Energy for self refresh per rank (pJ) (Joule)
system.mem_ctrl.dram.rank1.totalEnergy   1759610943723.882080                       # Total energy per rank (pJ) (Joule)
system.mem_ctrl.dram.rank1.averagePower    918.305370                       # Core power per rank (mW) (Watt)
system.mem_ctrl.dram.rank1.totalIdleTime            0                       # Total Idle time Per DRAM Rank (Tick)
system.mem_ctrl.dram.rank1.pwrStateTime::IDLE 1244347469932                       # Time in different power states (Tick)
system.mem_ctrl.dram.rank1.pwrStateTime::REF  86137450000                       # Time in different power states (Tick)
system.mem_ctrl.dram.rank1.pwrStateTime::SREF            0                       # Time in different power states (Tick)
system.mem_ctrl.dram.rank1.pwrStateTime::PRE_PDN            0                       # Time in different power states (Tick)
system.mem_ctrl.dram.rank1.pwrStateTime::ACT 585665198115                       # Time in different power states (Tick)
system.mem_ctrl.dram.rank1.pwrStateTime::ACT_PDN            0                       # Time in different power states (Tick)
system.mem_ctrl.power_state.pwrStateResidencyTicks::UNDEFINED 1916150118047                       # Cumulative time (in ticks) in various power states (Tick)
system.membus.transDist::ReadResp             4454294                       # Transaction distribution (Count)
system.membus.transDist::WritebackDirty       5214613                       # Transaction distribution (Count)
system.membus.transDist::CleanEvict           4286610                       # Transaction distribution (Count)
system.membus.transDist::ReadExReq            5080241                       # Transaction distribution (Count)
system.membus.transDist::ReadExResp           5080241                       # Transaction distribution (Count)
system.membus.transDist::ReadSharedReq        4454294                       # Transaction distribution (Count)
system.membus.pktCount_system.l2cache.mem_side_port::system.mem_ctrl.port     28570293                       # Packet count per connected requestor and responder (Count)
system.membus.pktCount::total                28570293                       # Packet count per connected requestor and responder (Count)
system.membus.pktSize_system.l2cache.mem_side_port::system.mem_ctrl.port    943945472                       # Cumulative packet size per connected requestor and responder (Byte)
system.membus.pktSize::total                943945472                       # Cumulative packet size per connected requestor and responder (Byte)
system.membus.snoops                                0                       # Total snoops (Count)
system.membus.snoopTraffic                          0                       # Total snoop traffic (Byte)
system.membus.snoopFanout::samples            9534535                       # Request fanout histogram (Count)
system.membus.snoopFanout::mean                     0                       # Request fanout histogram (Count)
system.membus.snoopFanout::stdev                    0                       # Request fanout histogram (Count)
system.membus.snoopFanout::underflows               0      0.00%      0.00% # Request fanout histogram (Count)
system.membus.snoopFanout::0                  9534535    100.00%    100.00% # Request fanout histogram (Count)
system.membus.snoopFanout::1                        0      0.00%    100.00% # Request fanout histogram (Count)
system.membus.snoopFanout::overflows                0      0.00%    100.00% # Request fanout histogram (Count)
system.membus.snoopFanout::min_value                0                       # Request fanout histogram (Count)
system.membus.snoopFanout::max_value                0                       # Request fanout histogram (Count)
system.membus.snoopFanout::total              9534535                       # Request fanout histogram (Count)
system.membus.power_state.pwrStateResidencyTicks::UNDEFINED 1916150118047                       # Cumulative time (in ticks) in various power states (Tick)
system.membus.reqLayer0.occupancy         22174138633                       # Layer occupancy (ticks) (Tick)
system.membus.reqLayer0.utilization               0.0                       # Layer utilization (Ratio)
system.membus.respLayer0.occupancy        25033218849                       # Layer occupancy (ticks) (Tick)
system.membus.respLayer0.utilization              0.0                       # Layer utilization (Ratio)
system.membus.snoop_filter.totRequests       19035758                       # Total number of requests made to the snoop filter. (Count)
system.membus.snoop_filter.hitSingleRequests      9501277                       # Number of requests hitting in the snoop filter with a single holder of the requested data. (Count)
system.membus.snoop_filter.hitMultiRequests            0                       # Number of requests hitting in the snoop filter with multiple (>1) holders of the requested data. (Count)
system.membus.snoop_filter.totSnoops                0                       # Total number of snoops made to the snoop filter. (Count)
system.membus.snoop_filter.hitSingleSnoops            0                       # Number of snoops hitting in the snoop filter with a single holder of the requested data. (Count)
system.membus.snoop_filter.hitMultiSnoops            0                       # Number of snoops hitting in the snoop filter with multiple (>1) holders of the requested data. (Count)
system.workload.inst.arm                            0                       # number of arm instructions executed (Count)
system.workload.inst.quiesce                        0                       # number of quiesce instructions executed (Count)
system.cpu.idleCycles                       383069680                       # Total number of cycles that the object has spent stopped (Unspecified)
system.cpu.tickCycles                      1341637897                       # Number of cycles that the object actually ticked (Unspecified)

---------- End Simulation Statistics   ----------
