
---------- Begin Simulation Statistics ----------
simSeconds                                   0.347787                       # Number of seconds simulated (Second)
simTicks                                 347787246625                       # Number of ticks simulated (Tick)
finalTick                                347787246625                       # Number of ticks from beginning of simulation (restored from checkpoints and never reset) (Tick)
simFreq                                  1000000000000                       # The number of ticks per simulated second ((Tick/Second))
hostSeconds                                   5728.65                       # Real time elapsed on the host (Second)
hostTickRate                                 60710191                       # The number of ticks simulated per host second (ticks/s) ((Tick/Second))
hostMemory                                    2296664                       # Number of bytes of host memory used (Byte)
simInsts                                   1000000000                       # Number of instructions simulated (Count)
simOps                                     1160112256                       # Number of ops (including micro ops) simulated (Count)
hostInstRate                                   174561                       # Simulator instruction rate (inst/s) ((Count/Second))
hostOpRate                                     202511                       # Simulator op (including micro ops) rate (op/s) ((Count/Second))
system.clk_domain.clock                           500                       # Clock period in ticks (Tick)
system.clk_domain.voltage_domain.voltage            1                       # Voltage in Volts (Volt)
system.cpu.numCycles                       2782297974                       # Number of cpu cycles simulated (Cycle)
system.cpu.numWorkItemsStarted                      0                       # Number of work items this cpu started (Count)
system.cpu.numWorkItemsCompleted                    0                       # Number of work items this cpu completed (Count)
system.cpu.instsAdded                      1659487559                       # Number of instructions added to the IQ (excludes non-spec) (Count)
system.cpu.nonSpecInstsAdded                     7183                       # Number of non-speculative instructions added to the IQ (Count)
system.cpu.instsIssued                     1524358744                       # Number of instructions issued (Count)
system.cpu.squashedInstsIssued                2014191                       # Number of squashed instructions issued (Count)
system.cpu.squashedInstsExamined            499382381                       # Number of squashed instructions iterated over during squash; mainly for profiling (Count)
system.cpu.squashedOperandsExamined        1281907963                       # Number of squashed operands that are examined and possibly removed from graph (Count)
system.cpu.squashedNonSpecRemoved                6644                       # Number of squashed non-spec instructions that were removed (Count)
system.cpu.numIssuedDist::samples          2782048417                       # Number of insts issued each cycle (Count)
system.cpu.numIssuedDist::mean               0.547927                       # Number of insts issued each cycle (Count)
system.cpu.numIssuedDist::stdev              1.377842                       # Number of insts issued each cycle (Count)
system.cpu.numIssuedDist::underflows                0      0.00%      0.00% # Number of insts issued each cycle (Count)
system.cpu.numIssuedDist::0                2273145974     81.71%     81.71% # Number of insts issued each cycle (Count)
system.cpu.numIssuedDist::1                 131483650      4.73%     86.43% # Number of insts issued each cycle (Count)
system.cpu.numIssuedDist::2                 101788132      3.66%     90.09% # Number of insts issued each cycle (Count)
system.cpu.numIssuedDist::3                  81382874      2.93%     93.02% # Number of insts issued each cycle (Count)
system.cpu.numIssuedDist::4                 102689222      3.69%     96.71% # Number of insts issued each cycle (Count)
system.cpu.numIssuedDist::5                  42473917      1.53%     98.24% # Number of insts issued each cycle (Count)
system.cpu.numIssuedDist::6                  29619254      1.06%     99.30% # Number of insts issued each cycle (Count)
system.cpu.numIssuedDist::7                  11414941      0.41%     99.71% # Number of insts issued each cycle (Count)
system.cpu.numIssuedDist::8                   8050453      0.29%    100.00% # Number of insts issued each cycle (Count)
system.cpu.numIssuedDist::overflows                 0      0.00%    100.00% # Number of insts issued each cycle (Count)
system.cpu.numIssuedDist::min_value                 0                       # Number of insts issued each cycle (Count)
system.cpu.numIssuedDist::max_value                 8                       # Number of insts issued each cycle (Count)
system.cpu.numIssuedDist::total            2782048417                       # Number of insts issued each cycle (Count)
system.cpu.statFuBusy::No_OpClass                   0      0.00%      0.00% # attempts to use FU when none available (Count)
system.cpu.statFuBusy::IntAlu                 2538742      4.58%      4.58% # attempts to use FU when none available (Count)
system.cpu.statFuBusy::IntMult                      0      0.00%      4.58% # attempts to use FU when none available (Count)
system.cpu.statFuBusy::IntDiv                       0      0.00%      4.58% # attempts to use FU when none available (Count)
system.cpu.statFuBusy::FloatAdd                     0      0.00%      4.58% # attempts to use FU when none available (Count)
system.cpu.statFuBusy::FloatCmp                     0      0.00%      4.58% # attempts to use FU when none available (Count)
system.cpu.statFuBusy::FloatCvt                     0      0.00%      4.58% # attempts to use FU when none available (Count)
system.cpu.statFuBusy::FloatMult                    0      0.00%      4.58% # attempts to use FU when none available (Count)
system.cpu.statFuBusy::FloatMultAcc                 0      0.00%      4.58% # attempts to use FU when none available (Count)
system.cpu.statFuBusy::FloatDiv                     0      0.00%      4.58% # attempts to use FU when none available (Count)
system.cpu.statFuBusy::FloatMisc                    0      0.00%      4.58% # attempts to use FU when none available (Count)
system.cpu.statFuBusy::FloatSqrt                    0      0.00%      4.58% # attempts to use FU when none available (Count)
system.cpu.statFuBusy::SimdAdd                      0      0.00%      4.58% # attempts to use FU when none available (Count)
system.cpu.statFuBusy::SimdAddAcc                   0      0.00%      4.58% # attempts to use FU when none available (Count)
system.cpu.statFuBusy::SimdAlu                      0      0.00%      4.58% # attempts to use FU when none available (Count)
system.cpu.statFuBusy::SimdCmp                      0      0.00%      4.58% # attempts to use FU when none available (Count)
system.cpu.statFuBusy::SimdCvt                      0      0.00%      4.58% # attempts to use FU when none available (Count)
system.cpu.statFuBusy::SimdMisc                     0      0.00%      4.58% # attempts to use FU when none available (Count)
system.cpu.statFuBusy::SimdMult                     0      0.00%      4.58% # attempts to use FU when none available (Count)
system.cpu.statFuBusy::SimdMultAcc                  0      0.00%      4.58% # attempts to use FU when none available (Count)
system.cpu.statFuBusy::SimdShift                    0      0.00%      4.58% # attempts to use FU when none available (Count)
system.cpu.statFuBusy::SimdShiftAcc                 0      0.00%      4.58% # attempts to use FU when none available (Count)
system.cpu.statFuBusy::SimdDiv                      0      0.00%      4.58% # attempts to use FU when none available (Count)
system.cpu.statFuBusy::SimdSqrt                     0      0.00%      4.58% # attempts to use FU when none available (Count)
system.cpu.statFuBusy::SimdFloatAdd                 0      0.00%      4.58% # attempts to use FU when none available (Count)
system.cpu.statFuBusy::SimdFloatAlu                 0      0.00%      4.58% # attempts to use FU when none available (Count)
system.cpu.statFuBusy::SimdFloatCmp                 0      0.00%      4.58% # attempts to use FU when none available (Count)
system.cpu.statFuBusy::SimdFloatCvt                 0      0.00%      4.58% # attempts to use FU when none available (Count)
system.cpu.statFuBusy::SimdFloatDiv                 0      0.00%      4.58% # attempts to use FU when none available (Count)
system.cpu.statFuBusy::SimdFloatMisc                0      0.00%      4.58% # attempts to use FU when none available (Count)
system.cpu.statFuBusy::SimdFloatMult                0      0.00%      4.58% # attempts to use FU when none available (Count)
system.cpu.statFuBusy::SimdFloatMultAcc             0      0.00%      4.58% # attempts to use FU when none available (Count)
system.cpu.statFuBusy::SimdFloatSqrt                0      0.00%      4.58% # attempts to use FU when none available (Count)
system.cpu.statFuBusy::SimdReduceAdd                0      0.00%      4.58% # attempts to use FU when none available (Count)
system.cpu.statFuBusy::SimdReduceAlu                0      0.00%      4.58% # attempts to use FU when none available (Count)
system.cpu.statFuBusy::SimdReduceCmp                0      0.00%      4.58% # attempts to use FU when none available (Count)
system.cpu.statFuBusy::SimdFloatReduceAdd            0      0.00%      4.58% # attempts to use FU when none available (Count)
system.cpu.statFuBusy::SimdFloatReduceCmp            0      0.00%      4.58% # attempts to use FU when none available (Count)
system.cpu.statFuBusy::SimdAes                      0      0.00%      4.58% # attempts to use FU when none available (Count)
system.cpu.statFuBusy::SimdAesMix                   0      0.00%      4.58% # attempts to use FU when none available (Count)
system.cpu.statFuBusy::SimdSha1Hash                 0      0.00%      4.58% # attempts to use FU when none available (Count)
system.cpu.statFuBusy::SimdSha1Hash2                0      0.00%      4.58% # attempts to use FU when none available (Count)
system.cpu.statFuBusy::SimdSha256Hash               0      0.00%      4.58% # attempts to use FU when none available (Count)
system.cpu.statFuBusy::SimdSha256Hash2              0      0.00%      4.58% # attempts to use FU when none available (Count)
system.cpu.statFuBusy::SimdShaSigma2                0      0.00%      4.58% # attempts to use FU when none available (Count)
system.cpu.statFuBusy::SimdShaSigma3                0      0.00%      4.58% # attempts to use FU when none available (Count)
system.cpu.statFuBusy::SimdPredAlu                  0      0.00%      4.58% # attempts to use FU when none available (Count)
system.cpu.statFuBusy::MemRead               42385700     76.47%     81.05% # attempts to use FU when none available (Count)
system.cpu.statFuBusy::MemWrite              10504749     18.95%    100.00% # attempts to use FU when none available (Count)
system.cpu.statFuBusy::FloatMemRead                 0      0.00%    100.00% # attempts to use FU when none available (Count)
system.cpu.statFuBusy::FloatMemWrite                0      0.00%    100.00% # attempts to use FU when none available (Count)
system.cpu.statFuBusy::IprAccess                    0      0.00%    100.00% # attempts to use FU when none available (Count)
system.cpu.statFuBusy::InstPrefetch                 0      0.00%    100.00% # attempts to use FU when none available (Count)
system.cpu.statIssuedInstType_0::No_OpClass            2      0.00%      0.00% # Number of instructions issued per FU type, per thread (Count)
system.cpu.statIssuedInstType_0::IntAlu     742914164     48.74%     48.74% # Number of instructions issued per FU type, per thread (Count)
system.cpu.statIssuedInstType_0::IntMult          888      0.00%     48.74% # Number of instructions issued per FU type, per thread (Count)
system.cpu.statIssuedInstType_0::IntDiv             0      0.00%     48.74% # Number of instructions issued per FU type, per thread (Count)
system.cpu.statIssuedInstType_0::FloatAdd            0      0.00%     48.74% # Number of instructions issued per FU type, per thread (Count)
system.cpu.statIssuedInstType_0::FloatCmp            0      0.00%     48.74% # Number of instructions issued per FU type, per thread (Count)
system.cpu.statIssuedInstType_0::FloatCvt            0      0.00%     48.74% # Number of instructions issued per FU type, per thread (Count)
system.cpu.statIssuedInstType_0::FloatMult            0      0.00%     48.74% # Number of instructions issued per FU type, per thread (Count)
system.cpu.statIssuedInstType_0::FloatMultAcc            0      0.00%     48.74% # Number of instructions issued per FU type, per thread (Count)
system.cpu.statIssuedInstType_0::FloatDiv            0      0.00%     48.74% # Number of instructions issued per FU type, per thread (Count)
system.cpu.statIssuedInstType_0::FloatMisc            0      0.00%     48.74% # Number of instructions issued per FU type, per thread (Count)
system.cpu.statIssuedInstType_0::FloatSqrt            0      0.00%     48.74% # Number of instructions issued per FU type, per thread (Count)
system.cpu.statIssuedInstType_0::SimdAdd            0      0.00%     48.74% # Number of instructions issued per FU type, per thread (Count)
system.cpu.statIssuedInstType_0::SimdAddAcc            0      0.00%     48.74% # Number of instructions issued per FU type, per thread (Count)
system.cpu.statIssuedInstType_0::SimdAlu            0      0.00%     48.74% # Number of instructions issued per FU type, per thread (Count)
system.cpu.statIssuedInstType_0::SimdCmp            0      0.00%     48.74% # Number of instructions issued per FU type, per thread (Count)
system.cpu.statIssuedInstType_0::SimdCvt            0      0.00%     48.74% # Number of instructions issued per FU type, per thread (Count)
system.cpu.statIssuedInstType_0::SimdMisc            0      0.00%     48.74% # Number of instructions issued per FU type, per thread (Count)
system.cpu.statIssuedInstType_0::SimdMult            0      0.00%     48.74% # Number of instructions issued per FU type, per thread (Count)
system.cpu.statIssuedInstType_0::SimdMultAcc            0      0.00%     48.74% # Number of instructions issued per FU type, per thread (Count)
system.cpu.statIssuedInstType_0::SimdShift            0      0.00%     48.74% # Number of instructions issued per FU type, per thread (Count)
system.cpu.statIssuedInstType_0::SimdShiftAcc            0      0.00%     48.74% # Number of instructions issued per FU type, per thread (Count)
system.cpu.statIssuedInstType_0::SimdDiv            0      0.00%     48.74% # Number of instructions issued per FU type, per thread (Count)
system.cpu.statIssuedInstType_0::SimdSqrt            0      0.00%     48.74% # Number of instructions issued per FU type, per thread (Count)
system.cpu.statIssuedInstType_0::SimdFloatAdd            0      0.00%     48.74% # Number of instructions issued per FU type, per thread (Count)
system.cpu.statIssuedInstType_0::SimdFloatAlu            0      0.00%     48.74% # Number of instructions issued per FU type, per thread (Count)
system.cpu.statIssuedInstType_0::SimdFloatCmp            0      0.00%     48.74% # Number of instructions issued per FU type, per thread (Count)
system.cpu.statIssuedInstType_0::SimdFloatCvt           38      0.00%     48.74% # Number of instructions issued per FU type, per thread (Count)
system.cpu.statIssuedInstType_0::SimdFloatDiv            6      0.00%     48.74% # Number of instructions issued per FU type, per thread (Count)
system.cpu.statIssuedInstType_0::SimdFloatMisc           23      0.00%     48.74% # Number of instructions issued per FU type, per thread (Count)
system.cpu.statIssuedInstType_0::SimdFloatMult           10      0.00%     48.74% # Number of instructions issued per FU type, per thread (Count)
system.cpu.statIssuedInstType_0::SimdFloatMultAcc            0      0.00%     48.74% # Number of instructions issued per FU type, per thread (Count)
system.cpu.statIssuedInstType_0::SimdFloatSqrt            0      0.00%     48.74% # Number of instructions issued per FU type, per thread (Count)
system.cpu.statIssuedInstType_0::SimdReduceAdd            0      0.00%     48.74% # Number of instructions issued per FU type, per thread (Count)
system.cpu.statIssuedInstType_0::SimdReduceAlu            0      0.00%     48.74% # Number of instructions issued per FU type, per thread (Count)
system.cpu.statIssuedInstType_0::SimdReduceCmp            0      0.00%     48.74% # Number of instructions issued per FU type, per thread (Count)
system.cpu.statIssuedInstType_0::SimdFloatReduceAdd            0      0.00%     48.74% # Number of instructions issued per FU type, per thread (Count)
system.cpu.statIssuedInstType_0::SimdFloatReduceCmp            0      0.00%     48.74% # Number of instructions issued per FU type, per thread (Count)
system.cpu.statIssuedInstType_0::SimdAes            0      0.00%     48.74% # Number of instructions issued per FU type, per thread (Count)
system.cpu.statIssuedInstType_0::SimdAesMix            0      0.00%     48.74% # Number of instructions issued per FU type, per thread (Count)
system.cpu.statIssuedInstType_0::SimdSha1Hash            0      0.00%     48.74% # Number of instructions issued per FU type, per thread (Count)
system.cpu.statIssuedInstType_0::SimdSha1Hash2            0      0.00%     48.74% # Number of instructions issued per FU type, per thread (Count)
system.cpu.statIssuedInstType_0::SimdSha256Hash            0      0.00%     48.74% # Number of instructions issued per FU type, per thread (Count)
system.cpu.statIssuedInstType_0::SimdSha256Hash2            0      0.00%     48.74% # Number of instructions issued per FU type, per thread (Count)
system.cpu.statIssuedInstType_0::SimdShaSigma2            0      0.00%     48.74% # Number of instructions issued per FU type, per thread (Count)
system.cpu.statIssuedInstType_0::SimdShaSigma3            0      0.00%     48.74% # Number of instructions issued per FU type, per thread (Count)
system.cpu.statIssuedInstType_0::SimdPredAlu            0      0.00%     48.74% # Number of instructions issued per FU type, per thread (Count)
system.cpu.statIssuedInstType_0::MemRead    543858260     35.68%     84.41% # Number of instructions issued per FU type, per thread (Count)
system.cpu.statIssuedInstType_0::MemWrite    237585353     15.59%    100.00% # Number of instructions issued per FU type, per thread (Count)
system.cpu.statIssuedInstType_0::FloatMemRead            0      0.00%    100.00% # Number of instructions issued per FU type, per thread (Count)
system.cpu.statIssuedInstType_0::FloatMemWrite            0      0.00%    100.00% # Number of instructions issued per FU type, per thread (Count)
system.cpu.statIssuedInstType_0::IprAccess            0      0.00%    100.00% # Number of instructions issued per FU type, per thread (Count)
system.cpu.statIssuedInstType_0::InstPrefetch            0      0.00%    100.00% # Number of instructions issued per FU type, per thread (Count)
system.cpu.statIssuedInstType_0::total     1524358744                       # Number of instructions issued per FU type, per thread (Count)
system.cpu.issueRate                         0.547878                       # Inst issue rate ((Count/Cycle))
system.cpu.fuBusy                            55429191                       # FU busy when requested (Count)
system.cpu.fuBusyRate                        0.036362                       # FU busy rate (busy events/executed inst) ((Count/Count))
system.cpu.intInstQueueReads               5888209281                       # Number of integer instruction queue reads (Count)
system.cpu.intInstQueueWrites              2159180079                       # Number of integer instruction queue writes (Count)
system.cpu.intInstQueueWakeupAccesses      1389354812                       # Number of integer instruction queue wakeup accesses (Count)
system.cpu.fpInstQueueReads                         0                       # Number of floating instruction queue reads (Count)
system.cpu.fpInstQueueWrites                        0                       # Number of floating instruction queue writes (Count)
system.cpu.fpInstQueueWakeupAccesses                0                       # Number of floating instruction queue wakeup accesses (Count)
system.cpu.vecInstQueueReads                        0                       # Number of vector instruction queue reads (Count)
system.cpu.vecInstQueueWrites                       0                       # Number of vector instruction queue writes (Count)
system.cpu.vecInstQueueWakeupAccesses               0                       # Number of vector instruction queue wakeup accesses (Count)
system.cpu.intAluAccesses                  1579787933                       # Number of integer alu accesses (Count)
system.cpu.fpAluAccesses                            0                       # Number of floating point alu accesses (Count)
system.cpu.vecAluAccesses                           0                       # Number of vector alu accesses (Count)
system.cpu.numInsts                        1506421069                       # Number of executed instructions (Count)
system.cpu.numLoadInsts                     535472710                       # Number of load instructions executed (Count)
system.cpu.numSquashedInsts                  17937669                       # Number of squashed instructions skipped in execute (Count)
system.cpu.numSwp                                   0                       # Number of swp insts executed (Count)
system.cpu.numNop                                 299                       # Number of nop insts executed (Count)
system.cpu.numRefs                          770065353                       # Number of memory reference insts executed (Count)
system.cpu.numBranches                      182582234                       # Number of branches executed (Count)
system.cpu.numStoreInsts                    234592643                       # Number of stores executed (Count)
system.cpu.numRate                           0.541431                       # Inst execution rate ((Count/Cycle))
system.cpu.timesIdled                             696                       # Number of times that the entire CPU went into an idle state and unscheduled itself (Count)
system.cpu.idleCycles                          249557                       # Total number of cycles that the CPU has spent unscheduled due to idling (Cycle)
system.cpu.committedInsts                  1000000000                       # Number of Instructions Simulated (Count)
system.cpu.committedOps                    1160112256                       # Number of Ops (including micro ops) Simulated (Count)
system.cpu.cpi                               2.782298                       # CPI: Cycles Per Instruction ((Cycle/Count))
system.cpu.totalCpi                          2.782298                       # CPI: Total CPI of All Threads ((Cycle/Count))
system.cpu.ipc                               0.359415                       # IPC: Instructions Per Cycle ((Count/Cycle))
system.cpu.totalIpc                          0.359415                       # IPC: Total IPC of All Threads ((Count/Cycle))
system.cpu.intRegfileReads                 1899147814                       # Number of integer regfile reads (Count)
system.cpu.intRegfileWrites                 880369738                       # Number of integer regfile writes (Count)
system.cpu.vecRegfileReads                        199                       # number of vector regfile reads (Count)
system.cpu.vecRegfileWrites                       668                       # number of vector regfile writes (Count)
system.cpu.ccRegfileReads                  5797098209                       # number of cc regfile reads (Count)
system.cpu.ccRegfileWrites                  746797982                       # number of cc regfile writes (Count)
system.cpu.miscRegfileReads                 655986249                       # number of misc regfile reads (Count)
system.cpu.miscRegfileWrites                      158                       # number of misc regfile writes (Count)
system.cpu.MemDepUnit__0.insertedLoads      510085024                       # Number of loads inserted to the mem dependence unit. (Count)
system.cpu.MemDepUnit__0.insertedStores     279066094                       # Number of stores inserted to the mem dependence unit. (Count)
system.cpu.MemDepUnit__0.conflictingLoads    156756637                       # Number of conflicting loads. (Count)
system.cpu.MemDepUnit__0.conflictingStores    111204668                       # Number of conflicting stores. (Count)
system.cpu.MemDepUnit__1.insertedLoads              0                       # Number of loads inserted to the mem dependence unit. (Count)
system.cpu.MemDepUnit__1.insertedStores             0                       # Number of stores inserted to the mem dependence unit. (Count)
system.cpu.MemDepUnit__1.conflictingLoads            0                       # Number of conflicting loads. (Count)
system.cpu.MemDepUnit__1.conflictingStores            0                       # Number of conflicting stores. (Count)
system.cpu.MemDepUnit__2.insertedLoads              0                       # Number of loads inserted to the mem dependence unit. (Count)
system.cpu.MemDepUnit__2.insertedStores             0                       # Number of stores inserted to the mem dependence unit. (Count)
system.cpu.MemDepUnit__2.conflictingLoads            0                       # Number of conflicting loads. (Count)
system.cpu.MemDepUnit__2.conflictingStores            0                       # Number of conflicting stores. (Count)
system.cpu.MemDepUnit__3.insertedLoads              0                       # Number of loads inserted to the mem dependence unit. (Count)
system.cpu.MemDepUnit__3.insertedStores             0                       # Number of stores inserted to the mem dependence unit. (Count)
system.cpu.MemDepUnit__3.conflictingLoads            0                       # Number of conflicting loads. (Count)
system.cpu.MemDepUnit__3.conflictingStores            0                       # Number of conflicting stores. (Count)
system.cpu.branchPred.lookups               265731358                       # Number of BP lookups (Count)
system.cpu.branchPred.condPredicted         220049884                       # Number of conditional branches predicted (Count)
system.cpu.branchPred.condIncorrect          11339070                       # Number of conditional branches incorrect (Count)
system.cpu.branchPred.BTBLookups            148699298                       # Number of BTB lookups (Count)
system.cpu.branchPred.BTBHits               148588983                       # Number of BTB hits (Count)
system.cpu.branchPred.BTBHitRatio            0.999258                       # BTB Hit Ratio (Ratio)
system.cpu.branchPred.RASUsed                 9612830                       # Number of times the RAS was used to get a target. (Count)
system.cpu.branchPred.RASIncorrect                  8                       # Number of incorrect RAS predictions. (Count)
system.cpu.branchPred.indirectLookups            2436                       # Number of indirect predictor lookups. (Count)
system.cpu.branchPred.indirectHits               2076                       # Number of indirect target hits. (Count)
system.cpu.branchPred.indirectMisses              360                       # Number of indirect misses. (Count)
system.cpu.branchPred.indirectMispredicted           98                       # Number of mispredicted indirect branches. (Count)
system.cpu.commit.commitSquashedInsts       499401573                       # The number of squashed insts skipped by commit (Count)
system.cpu.commit.commitNonSpecStalls             539                       # The number of times commit has been forced to stall to communicate backwards (Count)
system.cpu.commit.branchMispredicts          10506159                       # The number of times a branch was mispredicted (Count)
system.cpu.commit.numCommittedDist::samples   2712704532                       # Number of insts commited each cycle (Count)
system.cpu.commit.numCommittedDist::mean     0.427659                       # Number of insts commited each cycle (Count)
system.cpu.commit.numCommittedDist::stdev     1.471825                       # Number of insts commited each cycle (Count)
system.cpu.commit.numCommittedDist::underflows            0      0.00%      0.00% # Number of insts commited each cycle (Count)
system.cpu.commit.numCommittedDist::0      2380191651     87.74%     87.74% # Number of insts commited each cycle (Count)
system.cpu.commit.numCommittedDist::1       118955066      4.39%     92.13% # Number of insts commited each cycle (Count)
system.cpu.commit.numCommittedDist::2        49152941      1.81%     93.94% # Number of insts commited each cycle (Count)
system.cpu.commit.numCommittedDist::3        30237643      1.11%     95.05% # Number of insts commited each cycle (Count)
system.cpu.commit.numCommittedDist::4        32730497      1.21%     96.26% # Number of insts commited each cycle (Count)
system.cpu.commit.numCommittedDist::5        16002391      0.59%     96.85% # Number of insts commited each cycle (Count)
system.cpu.commit.numCommittedDist::6        13690224      0.50%     97.36% # Number of insts commited each cycle (Count)
system.cpu.commit.numCommittedDist::7        14889667      0.55%     97.90% # Number of insts commited each cycle (Count)
system.cpu.commit.numCommittedDist::8        56854452      2.10%    100.00% # Number of insts commited each cycle (Count)
system.cpu.commit.numCommittedDist::overflows            0      0.00%    100.00% # Number of insts commited each cycle (Count)
system.cpu.commit.numCommittedDist::min_value            0                       # Number of insts commited each cycle (Count)
system.cpu.commit.numCommittedDist::max_value            8                       # Number of insts commited each cycle (Count)
system.cpu.commit.numCommittedDist::total   2712704532                       # Number of insts commited each cycle (Count)
system.cpu.commit.instsCommitted           1000000193                       # Number of instructions committed (Count)
system.cpu.commit.opsCommitted             1160112449                       # Number of ops (including micro ops) committed (Count)
system.cpu.commit.memRefs                   581891603                       # Number of memory references committed (Count)
system.cpu.commit.loads                     366711315                       # Number of loads committed (Count)
system.cpu.commit.amos                              0                       # Number of atomic instructions committed (Count)
system.cpu.commit.membars                          79                       # Number of memory barriers committed (Count)
system.cpu.commit.branches                  142882388                       # Number of branches committed (Count)
system.cpu.commit.vectorInstructions                0                       # Number of committed Vector instructions. (Count)
system.cpu.commit.floating                          0                       # Number of committed floating point instructions. (Count)
system.cpu.commit.integer                  1016066420                       # Number of committed integer instructions. (Count)
system.cpu.commit.functionCalls               4825530                       # Number of function calls committed. (Count)
system.cpu.commit.committedInstType_0::No_OpClass            0      0.00%      0.00% # Class of committed instruction (Count)
system.cpu.commit.committedInstType_0::IntAlu    578220034     49.84%     49.84% # Class of committed instruction (Count)
system.cpu.commit.committedInstType_0::IntMult          809      0.00%     49.84% # Class of committed instruction (Count)
system.cpu.commit.committedInstType_0::IntDiv            0      0.00%     49.84% # Class of committed instruction (Count)
system.cpu.commit.committedInstType_0::FloatAdd            0      0.00%     49.84% # Class of committed instruction (Count)
system.cpu.commit.committedInstType_0::FloatCmp            0      0.00%     49.84% # Class of committed instruction (Count)
system.cpu.commit.committedInstType_0::FloatCvt            0      0.00%     49.84% # Class of committed instruction (Count)
system.cpu.commit.committedInstType_0::FloatMult            0      0.00%     49.84% # Class of committed instruction (Count)
system.cpu.commit.committedInstType_0::FloatMultAcc            0      0.00%     49.84% # Class of committed instruction (Count)
system.cpu.commit.committedInstType_0::FloatDiv            0      0.00%     49.84% # Class of committed instruction (Count)
system.cpu.commit.committedInstType_0::FloatMisc            0      0.00%     49.84% # Class of committed instruction (Count)
system.cpu.commit.committedInstType_0::FloatSqrt            0      0.00%     49.84% # Class of committed instruction (Count)
system.cpu.commit.committedInstType_0::SimdAdd            0      0.00%     49.84% # Class of committed instruction (Count)
system.cpu.commit.committedInstType_0::SimdAddAcc            0      0.00%     49.84% # Class of committed instruction (Count)
system.cpu.commit.committedInstType_0::SimdAlu            0      0.00%     49.84% # Class of committed instruction (Count)
system.cpu.commit.committedInstType_0::SimdCmp            0      0.00%     49.84% # Class of committed instruction (Count)
system.cpu.commit.committedInstType_0::SimdCvt            0      0.00%     49.84% # Class of committed instruction (Count)
system.cpu.commit.committedInstType_0::SimdMisc            0      0.00%     49.84% # Class of committed instruction (Count)
system.cpu.commit.committedInstType_0::SimdMult            0      0.00%     49.84% # Class of committed instruction (Count)
system.cpu.commit.committedInstType_0::SimdMultAcc            0      0.00%     49.84% # Class of committed instruction (Count)
system.cpu.commit.committedInstType_0::SimdShift            0      0.00%     49.84% # Class of committed instruction (Count)
system.cpu.commit.committedInstType_0::SimdShiftAcc            0      0.00%     49.84% # Class of committed instruction (Count)
system.cpu.commit.committedInstType_0::SimdDiv            0      0.00%     49.84% # Class of committed instruction (Count)
system.cpu.commit.committedInstType_0::SimdSqrt            0      0.00%     49.84% # Class of committed instruction (Count)
system.cpu.commit.committedInstType_0::SimdFloatAdd            0      0.00%     49.84% # Class of committed instruction (Count)
system.cpu.commit.committedInstType_0::SimdFloatAlu            0      0.00%     49.84% # Class of committed instruction (Count)
system.cpu.commit.committedInstType_0::SimdFloatCmp            0      0.00%     49.84% # Class of committed instruction (Count)
system.cpu.commit.committedInstType_0::SimdFloatCvt            0      0.00%     49.84% # Class of committed instruction (Count)
system.cpu.commit.committedInstType_0::SimdFloatDiv            0      0.00%     49.84% # Class of committed instruction (Count)
system.cpu.commit.committedInstType_0::SimdFloatMisc            3      0.00%     49.84% # Class of committed instruction (Count)
system.cpu.commit.committedInstType_0::SimdFloatMult            0      0.00%     49.84% # Class of committed instruction (Count)
system.cpu.commit.committedInstType_0::SimdFloatMultAcc            0      0.00%     49.84% # Class of committed instruction (Count)
system.cpu.commit.committedInstType_0::SimdFloatSqrt            0      0.00%     49.84% # Class of committed instruction (Count)
system.cpu.commit.committedInstType_0::SimdReduceAdd            0      0.00%     49.84% # Class of committed instruction (Count)
system.cpu.commit.committedInstType_0::SimdReduceAlu            0      0.00%     49.84% # Class of committed instruction (Count)
system.cpu.commit.committedInstType_0::SimdReduceCmp            0      0.00%     49.84% # Class of committed instruction (Count)
system.cpu.commit.committedInstType_0::SimdFloatReduceAdd            0      0.00%     49.84% # Class of committed instruction (Count)
system.cpu.commit.committedInstType_0::SimdFloatReduceCmp            0      0.00%     49.84% # Class of committed instruction (Count)
system.cpu.commit.committedInstType_0::SimdAes            0      0.00%     49.84% # Class of committed instruction (Count)
system.cpu.commit.committedInstType_0::SimdAesMix            0      0.00%     49.84% # Class of committed instruction (Count)
system.cpu.commit.committedInstType_0::SimdSha1Hash            0      0.00%     49.84% # Class of committed instruction (Count)
system.cpu.commit.committedInstType_0::SimdSha1Hash2            0      0.00%     49.84% # Class of committed instruction (Count)
system.cpu.commit.committedInstType_0::SimdSha256Hash            0      0.00%     49.84% # Class of committed instruction (Count)
system.cpu.commit.committedInstType_0::SimdSha256Hash2            0      0.00%     49.84% # Class of committed instruction (Count)
system.cpu.commit.committedInstType_0::SimdShaSigma2            0      0.00%     49.84% # Class of committed instruction (Count)
system.cpu.commit.committedInstType_0::SimdShaSigma3            0      0.00%     49.84% # Class of committed instruction (Count)
system.cpu.commit.committedInstType_0::SimdPredAlu            0      0.00%     49.84% # Class of committed instruction (Count)
system.cpu.commit.committedInstType_0::MemRead    366711315     31.61%     81.45% # Class of committed instruction (Count)
system.cpu.commit.committedInstType_0::MemWrite    215180288     18.55%    100.00% # Class of committed instruction (Count)
system.cpu.commit.committedInstType_0::FloatMemRead            0      0.00%    100.00% # Class of committed instruction (Count)
system.cpu.commit.committedInstType_0::FloatMemWrite            0      0.00%    100.00% # Class of committed instruction (Count)
system.cpu.commit.committedInstType_0::IprAccess            0      0.00%    100.00% # Class of committed instruction (Count)
system.cpu.commit.committedInstType_0::InstPrefetch            0      0.00%    100.00% # Class of committed instruction (Count)
system.cpu.commit.committedInstType_0::total   1160112449                       # Class of committed instruction (Count)
system.cpu.commit.commitEligibleSamples      56854452                       # number cycles where commit BW limit reached (Cycle)
system.cpu.dcache.demandHits::cpu.data      512448821                       # number of demand (read+write) hits (Count)
system.cpu.dcache.demandHits::total         512448821                       # number of demand (read+write) hits (Count)
system.cpu.dcache.overallHits::cpu.data     512463330                       # number of overall hits (Count)
system.cpu.dcache.overallHits::total        512463330                       # number of overall hits (Count)
system.cpu.dcache.demandMisses::cpu.data     90886552                       # number of demand (read+write) misses (Count)
system.cpu.dcache.demandMisses::total        90886552                       # number of demand (read+write) misses (Count)
system.cpu.dcache.overallMisses::cpu.data     98543515                       # number of overall misses (Count)
system.cpu.dcache.overallMisses::total       98543515                       # number of overall misses (Count)
system.cpu.dcache.demandMissLatency::cpu.data 3808140914129                       # number of demand (read+write) miss ticks (Tick)
system.cpu.dcache.demandMissLatency::total 3808140914129                       # number of demand (read+write) miss ticks (Tick)
system.cpu.dcache.overallMissLatency::cpu.data 3808140914129                       # number of overall miss ticks (Tick)
system.cpu.dcache.overallMissLatency::total 3808140914129                       # number of overall miss ticks (Tick)
system.cpu.dcache.demandAccesses::cpu.data    603335373                       # number of demand (read+write) accesses (Count)
system.cpu.dcache.demandAccesses::total     603335373                       # number of demand (read+write) accesses (Count)
system.cpu.dcache.overallAccesses::cpu.data    611006845                       # number of overall (read+write) accesses (Count)
system.cpu.dcache.overallAccesses::total    611006845                       # number of overall (read+write) accesses (Count)
system.cpu.dcache.demandMissRate::cpu.data     0.150640                       # miss rate for demand accesses (Ratio)
system.cpu.dcache.demandMissRate::total      0.150640                       # miss rate for demand accesses (Ratio)
system.cpu.dcache.overallMissRate::cpu.data     0.161281                       # miss rate for overall accesses (Ratio)
system.cpu.dcache.overallMissRate::total     0.161281                       # miss rate for overall accesses (Ratio)
system.cpu.dcache.demandAvgMissLatency::cpu.data 41899.938223                       # average overall miss latency in ticks ((Tick/Count))
system.cpu.dcache.demandAvgMissLatency::total 41899.938223                       # average overall miss latency in ticks ((Tick/Count))
system.cpu.dcache.overallAvgMissLatency::cpu.data 38644.256947                       # average overall miss latency ((Tick/Count))
system.cpu.dcache.overallAvgMissLatency::total 38644.256947                       # average overall miss latency ((Tick/Count))
system.cpu.dcache.blockedCycles::no_mshrs   1489116383                       # number of cycles access was blocked (Cycle)
system.cpu.dcache.blockedCycles::no_targets       687017                       # number of cycles access was blocked (Cycle)
system.cpu.dcache.blockedCauses::no_mshrs     12488517                       # number of times access was blocked (Count)
system.cpu.dcache.blockedCauses::no_targets         2671                       # number of times access was blocked (Count)
system.cpu.dcache.avgBlocked::no_mshrs     119.238848                       # average number of cycles each access was blocked ((Cycle/Count))
system.cpu.dcache.avgBlocked::no_targets   257.213403                       # average number of cycles each access was blocked ((Cycle/Count))
system.cpu.dcache.writebacks::writebacks     10673525                       # number of writebacks (Count)
system.cpu.dcache.writebacks::total          10673525                       # number of writebacks (Count)
system.cpu.dcache.demandMshrHits::cpu.data     72344550                       # number of demand (read+write) MSHR hits (Count)
system.cpu.dcache.demandMshrHits::total      72344550                       # number of demand (read+write) MSHR hits (Count)
system.cpu.dcache.overallMshrHits::cpu.data     72344550                       # number of overall MSHR hits (Count)
system.cpu.dcache.overallMshrHits::total     72344550                       # number of overall MSHR hits (Count)
system.cpu.dcache.demandMshrMisses::cpu.data     18542002                       # number of demand (read+write) MSHR misses (Count)
system.cpu.dcache.demandMshrMisses::total     18542002                       # number of demand (read+write) MSHR misses (Count)
system.cpu.dcache.overallMshrMisses::cpu.data     22370809                       # number of overall MSHR misses (Count)
system.cpu.dcache.overallMshrMisses::total     22370809                       # number of overall MSHR misses (Count)
system.cpu.dcache.demandMshrMissLatency::cpu.data 645077213943                       # number of demand (read+write) MSHR miss ticks (Tick)
system.cpu.dcache.demandMshrMissLatency::total 645077213943                       # number of demand (read+write) MSHR miss ticks (Tick)
system.cpu.dcache.overallMshrMissLatency::cpu.data 953785792943                       # number of overall MSHR miss ticks (Tick)
system.cpu.dcache.overallMshrMissLatency::total 953785792943                       # number of overall MSHR miss ticks (Tick)
system.cpu.dcache.demandMshrMissRate::cpu.data     0.030732                       # mshr miss ratio for demand accesses (Ratio)
system.cpu.dcache.demandMshrMissRate::total     0.030732                       # mshr miss ratio for demand accesses (Ratio)
system.cpu.dcache.overallMshrMissRate::cpu.data     0.036613                       # mshr miss ratio for overall accesses (Ratio)
system.cpu.dcache.overallMshrMissRate::total     0.036613                       # mshr miss ratio for overall accesses (Ratio)
system.cpu.dcache.demandAvgMshrMissLatency::cpu.data 34790.052010                       # average overall mshr miss latency ((Tick/Count))
system.cpu.dcache.demandAvgMshrMissLatency::total 34790.052010                       # average overall mshr miss latency ((Tick/Count))
system.cpu.dcache.overallAvgMshrMissLatency::cpu.data 42635.283907                       # average overall mshr miss latency ((Tick/Count))
system.cpu.dcache.overallAvgMshrMissLatency::total 42635.283907                       # average overall mshr miss latency ((Tick/Count))
system.cpu.dcache.replacements               22370299                       # number of replacements (Count)
system.cpu.dcache.LoadLockedReq.hits::cpu.data           37                       # number of LoadLockedReq hits (Count)
system.cpu.dcache.LoadLockedReq.hits::total           37                       # number of LoadLockedReq hits (Count)
system.cpu.dcache.LoadLockedReq.misses::cpu.data            2                       # number of LoadLockedReq misses (Count)
system.cpu.dcache.LoadLockedReq.misses::total            2                       # number of LoadLockedReq misses (Count)
system.cpu.dcache.LoadLockedReq.missLatency::cpu.data       143875                       # number of LoadLockedReq miss ticks (Tick)
system.cpu.dcache.LoadLockedReq.missLatency::total       143875                       # number of LoadLockedReq miss ticks (Tick)
system.cpu.dcache.LoadLockedReq.accesses::cpu.data           39                       # number of LoadLockedReq accesses(hits+misses) (Count)
system.cpu.dcache.LoadLockedReq.accesses::total           39                       # number of LoadLockedReq accesses(hits+misses) (Count)
system.cpu.dcache.LoadLockedReq.missRate::cpu.data     0.051282                       # miss rate for LoadLockedReq accesses (Ratio)
system.cpu.dcache.LoadLockedReq.missRate::total     0.051282                       # miss rate for LoadLockedReq accesses (Ratio)
system.cpu.dcache.LoadLockedReq.avgMissLatency::cpu.data 71937.500000                       # average LoadLockedReq miss latency ((Tick/Count))
system.cpu.dcache.LoadLockedReq.avgMissLatency::total 71937.500000                       # average LoadLockedReq miss latency ((Tick/Count))
system.cpu.dcache.LoadLockedReq.mshrMisses::cpu.data            2                       # number of LoadLockedReq MSHR misses (Count)
system.cpu.dcache.LoadLockedReq.mshrMisses::total            2                       # number of LoadLockedReq MSHR misses (Count)
system.cpu.dcache.LoadLockedReq.mshrMissLatency::cpu.data       143375                       # number of LoadLockedReq MSHR miss ticks (Tick)
system.cpu.dcache.LoadLockedReq.mshrMissLatency::total       143375                       # number of LoadLockedReq MSHR miss ticks (Tick)
system.cpu.dcache.LoadLockedReq.mshrMissRate::cpu.data     0.051282                       # mshr miss rate for LoadLockedReq accesses (Ratio)
system.cpu.dcache.LoadLockedReq.mshrMissRate::total     0.051282                       # mshr miss rate for LoadLockedReq accesses (Ratio)
system.cpu.dcache.LoadLockedReq.avgMshrMissLatency::cpu.data 71687.500000                       # average LoadLockedReq mshr miss latency ((Tick/Count))
system.cpu.dcache.LoadLockedReq.avgMshrMissLatency::total 71687.500000                       # average LoadLockedReq mshr miss latency ((Tick/Count))
system.cpu.dcache.ReadReq.hits::cpu.data    365702694                       # number of ReadReq hits (Count)
system.cpu.dcache.ReadReq.hits::total       365702694                       # number of ReadReq hits (Count)
system.cpu.dcache.ReadReq.misses::cpu.data     24382388                       # number of ReadReq misses (Count)
system.cpu.dcache.ReadReq.misses::total      24382388                       # number of ReadReq misses (Count)
system.cpu.dcache.ReadReq.missLatency::cpu.data 477844618500                       # number of ReadReq miss ticks (Tick)
system.cpu.dcache.ReadReq.missLatency::total 477844618500                       # number of ReadReq miss ticks (Tick)
system.cpu.dcache.ReadReq.accesses::cpu.data    390085082                       # number of ReadReq accesses(hits+misses) (Count)
system.cpu.dcache.ReadReq.accesses::total    390085082                       # number of ReadReq accesses(hits+misses) (Count)
system.cpu.dcache.ReadReq.missRate::cpu.data     0.062505                       # miss rate for ReadReq accesses (Ratio)
system.cpu.dcache.ReadReq.missRate::total     0.062505                       # miss rate for ReadReq accesses (Ratio)
system.cpu.dcache.ReadReq.avgMissLatency::cpu.data 19597.941699                       # average ReadReq miss latency ((Tick/Count))
system.cpu.dcache.ReadReq.avgMissLatency::total 19597.941699                       # average ReadReq miss latency ((Tick/Count))
system.cpu.dcache.ReadReq.mshrHits::cpu.data     13376563                       # number of ReadReq MSHR hits (Count)
system.cpu.dcache.ReadReq.mshrHits::total     13376563                       # number of ReadReq MSHR hits (Count)
system.cpu.dcache.ReadReq.mshrMisses::cpu.data     11005825                       # number of ReadReq MSHR misses (Count)
system.cpu.dcache.ReadReq.mshrMisses::total     11005825                       # number of ReadReq MSHR misses (Count)
system.cpu.dcache.ReadReq.mshrMissLatency::cpu.data 177569432750                       # number of ReadReq MSHR miss ticks (Tick)
system.cpu.dcache.ReadReq.mshrMissLatency::total 177569432750                       # number of ReadReq MSHR miss ticks (Tick)
system.cpu.dcache.ReadReq.mshrMissRate::cpu.data     0.028214                       # mshr miss rate for ReadReq accesses (Ratio)
system.cpu.dcache.ReadReq.mshrMissRate::total     0.028214                       # mshr miss rate for ReadReq accesses (Ratio)
system.cpu.dcache.ReadReq.avgMshrMissLatency::cpu.data 16134.131948                       # average ReadReq mshr miss latency ((Tick/Count))
system.cpu.dcache.ReadReq.avgMshrMissLatency::total 16134.131948                       # average ReadReq mshr miss latency ((Tick/Count))
system.cpu.dcache.SoftPFReq.hits::cpu.data        14509                       # number of SoftPFReq hits (Count)
system.cpu.dcache.SoftPFReq.hits::total         14509                       # number of SoftPFReq hits (Count)
system.cpu.dcache.SoftPFReq.misses::cpu.data      7656963                       # number of SoftPFReq misses (Count)
system.cpu.dcache.SoftPFReq.misses::total      7656963                       # number of SoftPFReq misses (Count)
system.cpu.dcache.SoftPFReq.accesses::cpu.data      7671472                       # number of SoftPFReq accesses(hits+misses) (Count)
system.cpu.dcache.SoftPFReq.accesses::total      7671472                       # number of SoftPFReq accesses(hits+misses) (Count)
system.cpu.dcache.SoftPFReq.missRate::cpu.data     0.998109                       # miss rate for SoftPFReq accesses (Ratio)
system.cpu.dcache.SoftPFReq.missRate::total     0.998109                       # miss rate for SoftPFReq accesses (Ratio)
system.cpu.dcache.SoftPFReq.mshrMisses::cpu.data      3828807                       # number of SoftPFReq MSHR misses (Count)
system.cpu.dcache.SoftPFReq.mshrMisses::total      3828807                       # number of SoftPFReq MSHR misses (Count)
system.cpu.dcache.SoftPFReq.mshrMissLatency::cpu.data 308708579000                       # number of SoftPFReq MSHR miss ticks (Tick)
system.cpu.dcache.SoftPFReq.mshrMissLatency::total 308708579000                       # number of SoftPFReq MSHR miss ticks (Tick)
system.cpu.dcache.SoftPFReq.mshrMissRate::cpu.data     0.499097                       # mshr miss rate for SoftPFReq accesses (Ratio)
system.cpu.dcache.SoftPFReq.mshrMissRate::total     0.499097                       # mshr miss rate for SoftPFReq accesses (Ratio)
system.cpu.dcache.SoftPFReq.avgMshrMissLatency::cpu.data 80627.876777                       # average SoftPFReq mshr miss latency ((Tick/Count))
system.cpu.dcache.SoftPFReq.avgMshrMissLatency::total 80627.876777                       # average SoftPFReq mshr miss latency ((Tick/Count))
system.cpu.dcache.StoreCondReq.hits::cpu.data           39                       # number of StoreCondReq hits (Count)
system.cpu.dcache.StoreCondReq.hits::total           39                       # number of StoreCondReq hits (Count)
system.cpu.dcache.StoreCondReq.accesses::cpu.data           39                       # number of StoreCondReq accesses(hits+misses) (Count)
system.cpu.dcache.StoreCondReq.accesses::total           39                       # number of StoreCondReq accesses(hits+misses) (Count)
system.cpu.dcache.WriteReq.hits::cpu.data    146746127                       # number of WriteReq hits (Count)
system.cpu.dcache.WriteReq.hits::total      146746127                       # number of WriteReq hits (Count)
system.cpu.dcache.WriteReq.misses::cpu.data     66504164                       # number of WriteReq misses (Count)
system.cpu.dcache.WriteReq.misses::total     66504164                       # number of WriteReq misses (Count)
system.cpu.dcache.WriteReq.missLatency::cpu.data 3330296295629                       # number of WriteReq miss ticks (Tick)
system.cpu.dcache.WriteReq.missLatency::total 3330296295629                       # number of WriteReq miss ticks (Tick)
system.cpu.dcache.WriteReq.accesses::cpu.data    213250291                       # number of WriteReq accesses(hits+misses) (Count)
system.cpu.dcache.WriteReq.accesses::total    213250291                       # number of WriteReq accesses(hits+misses) (Count)
system.cpu.dcache.WriteReq.missRate::cpu.data     0.311860                       # miss rate for WriteReq accesses (Ratio)
system.cpu.dcache.WriteReq.missRate::total     0.311860                       # miss rate for WriteReq accesses (Ratio)
system.cpu.dcache.WriteReq.avgMissLatency::cpu.data 50076.507926                       # average WriteReq miss latency ((Tick/Count))
system.cpu.dcache.WriteReq.avgMissLatency::total 50076.507926                       # average WriteReq miss latency ((Tick/Count))
system.cpu.dcache.WriteReq.mshrHits::cpu.data     58967987                       # number of WriteReq MSHR hits (Count)
system.cpu.dcache.WriteReq.mshrHits::total     58967987                       # number of WriteReq MSHR hits (Count)
system.cpu.dcache.WriteReq.mshrMisses::cpu.data      7536177                       # number of WriteReq MSHR misses (Count)
system.cpu.dcache.WriteReq.mshrMisses::total      7536177                       # number of WriteReq MSHR misses (Count)
system.cpu.dcache.WriteReq.mshrMissLatency::cpu.data 467507781193                       # number of WriteReq MSHR miss ticks (Tick)
system.cpu.dcache.WriteReq.mshrMissLatency::total 467507781193                       # number of WriteReq MSHR miss ticks (Tick)
system.cpu.dcache.WriteReq.mshrMissRate::cpu.data     0.035340                       # mshr miss rate for WriteReq accesses (Ratio)
system.cpu.dcache.WriteReq.mshrMissRate::total     0.035340                       # mshr miss rate for WriteReq accesses (Ratio)
system.cpu.dcache.WriteReq.avgMshrMissLatency::cpu.data 62035.138133                       # average WriteReq mshr miss latency ((Tick/Count))
system.cpu.dcache.WriteReq.avgMshrMissLatency::total 62035.138133                       # average WriteReq mshr miss latency ((Tick/Count))
system.cpu.dcache.power_state.pwrStateResidencyTicks::UNDEFINED 347787246625                       # Cumulative time (in ticks) in various power states (Tick)
system.cpu.dcache.tags.tagsInUse           487.567759                       # Average ticks per tags in use ((Tick/Count))
system.cpu.dcache.tags.totalRefs            534834217                       # Total number of references to valid blocks. (Count)
system.cpu.dcache.tags.sampledRefs           22370811                       # Sample count of references to valid blocks. (Count)
system.cpu.dcache.tags.avgRefs              23.907681                       # Average number of references to valid blocks. ((Count/Count))
system.cpu.dcache.tags.warmupTick              147500                       # The tick when the warmup percentage was hit. (Tick)
system.cpu.dcache.tags.occupancies::cpu.data   487.567759                       # Average occupied blocks per tick, per requestor ((Count/Tick))
system.cpu.dcache.tags.avgOccs::cpu.data     0.952281                       # Average percentage of cache occupancy ((Ratio/Tick))
system.cpu.dcache.tags.avgOccs::total        0.952281                       # Average percentage of cache occupancy ((Ratio/Tick))
system.cpu.dcache.tags.occupanciesTaskId::1024          512                       # Occupied blocks per task id (Count)
system.cpu.dcache.tags.ageTaskId_1024::0          406                       # Occupied blocks per task id, per block age (Count)
system.cpu.dcache.tags.ageTaskId_1024::1          106                       # Occupied blocks per task id, per block age (Count)
system.cpu.dcache.tags.ratioOccsTaskId::1024            1                       # Ratio of occupied blocks and all blocks, per task id (Ratio)
system.cpu.dcache.tags.tagAccesses         2466398503                       # Number of tag accesses (Count)
system.cpu.dcache.tags.dataAccesses        2466398503                       # Number of data accesses (Count)
system.cpu.dcache.tags.power_state.pwrStateResidencyTicks::UNDEFINED 347787246625                       # Cumulative time (in ticks) in various power states (Tick)
system.cpu.decode.idleCycles                122245232                       # Number of cycles decode is idle (Cycle)
system.cpu.decode.blockedCycles            2375394422                       # Number of cycles decode is blocked (Cycle)
system.cpu.decode.runCycles                 211738878                       # Number of cycles decode is running (Cycle)
system.cpu.decode.unblockCycles              61722272                       # Number of cycles decode is unblocking (Cycle)
system.cpu.decode.squashCycles               10947613                       # Number of cycles decode is squashing (Cycle)
system.cpu.decode.branchResolved            134884231                       # Number of times decode resolved a branch (Count)
system.cpu.decode.branchMispred                853626                       # Number of times decode detected a branch misprediction (Count)
system.cpu.decode.decodedInsts             1783305440                       # Number of instructions handled by decode (Count)
system.cpu.decode.squashedInsts               3014970                       # Number of squashed instructions handled by decode (Count)
system.cpu.fetch.icacheStallCycles          179639150                       # Number of cycles fetch is stalled on an Icache miss (Cycle)
system.cpu.fetch.insts                     1694659839                       # Number of instructions fetch has processed (Count)
system.cpu.fetch.branches                   265731358                       # Number of branches that fetch encountered (Count)
system.cpu.fetch.predictedBranches          158203889                       # Number of branches that fetch has predicted taken (Count)
system.cpu.fetch.cycles                    2590628655                       # Number of cycles fetch has run and was not squashing or blocked (Cycle)
system.cpu.fetch.squashCycles                23561050                       # Number of cycles fetch has spent squashing (Cycle)
system.cpu.fetch.miscStallCycles                    5                       # Number of cycles fetch has spent waiting on interrupts, or bad addresses, or out of MSHRs (Cycle)
system.cpu.fetch.pendingTrapStallCycles            12                       # Number of stall cycles due to pending traps (Cycle)
system.cpu.fetch.icacheWaitRetryStallCycles           70                       # Number of stall cycles due to full MSHR (Cycle)
system.cpu.fetch.cacheLines                 173461041                       # Number of cache lines fetched (Count)
system.cpu.fetch.icacheSquashes               3154461                       # Number of outstanding Icache misses that were squashed (Count)
system.cpu.fetch.nisnDist::samples         2782048417                       # Number of instructions fetched each cycle (Total) (Count)
system.cpu.fetch.nisnDist::mean              0.691475                       # Number of instructions fetched each cycle (Total) (Count)
system.cpu.fetch.nisnDist::stdev             2.007735                       # Number of instructions fetched each cycle (Total) (Count)
system.cpu.fetch.nisnDist::underflows               0      0.00%      0.00% # Number of instructions fetched each cycle (Total) (Count)
system.cpu.fetch.nisnDist::0               2429741616     87.34%     87.34% # Number of instructions fetched each cycle (Total) (Count)
system.cpu.fetch.nisnDist::1                 23900645      0.86%     88.20% # Number of instructions fetched each cycle (Total) (Count)
system.cpu.fetch.nisnDist::2                 38119019      1.37%     89.57% # Number of instructions fetched each cycle (Total) (Count)
system.cpu.fetch.nisnDist::3                 22544763      0.81%     90.38% # Number of instructions fetched each cycle (Total) (Count)
system.cpu.fetch.nisnDist::4                 43597342      1.57%     91.94% # Number of instructions fetched each cycle (Total) (Count)
system.cpu.fetch.nisnDist::5                 38059886      1.37%     93.31% # Number of instructions fetched each cycle (Total) (Count)
system.cpu.fetch.nisnDist::6                 34130211      1.23%     94.54% # Number of instructions fetched each cycle (Total) (Count)
system.cpu.fetch.nisnDist::7                 29166809      1.05%     95.59% # Number of instructions fetched each cycle (Total) (Count)
system.cpu.fetch.nisnDist::8                122788126      4.41%    100.00% # Number of instructions fetched each cycle (Total) (Count)
system.cpu.fetch.nisnDist::overflows                0      0.00%    100.00% # Number of instructions fetched each cycle (Total) (Count)
system.cpu.fetch.nisnDist::min_value                0                       # Number of instructions fetched each cycle (Total) (Count)
system.cpu.fetch.nisnDist::max_value                8                       # Number of instructions fetched each cycle (Total) (Count)
system.cpu.fetch.nisnDist::total           2782048417                       # Number of instructions fetched each cycle (Total) (Count)
system.cpu.fetch.branchRate                  0.095508                       # Number of branch fetches per cycle (Ratio)
system.cpu.fetch.rate                        0.609086                       # Number of inst fetches per cycle ((Count/Cycle))
system.cpu.icache.demandHits::cpu.inst      173459777                       # number of demand (read+write) hits (Count)
system.cpu.icache.demandHits::total         173459777                       # number of demand (read+write) hits (Count)
system.cpu.icache.overallHits::cpu.inst     173459777                       # number of overall hits (Count)
system.cpu.icache.overallHits::total        173459777                       # number of overall hits (Count)
system.cpu.icache.demandMisses::cpu.inst         1264                       # number of demand (read+write) misses (Count)
system.cpu.icache.demandMisses::total            1264                       # number of demand (read+write) misses (Count)
system.cpu.icache.overallMisses::cpu.inst         1264                       # number of overall misses (Count)
system.cpu.icache.overallMisses::total           1264                       # number of overall misses (Count)
system.cpu.icache.demandMissLatency::cpu.inst     86185748                       # number of demand (read+write) miss ticks (Tick)
system.cpu.icache.demandMissLatency::total     86185748                       # number of demand (read+write) miss ticks (Tick)
system.cpu.icache.overallMissLatency::cpu.inst     86185748                       # number of overall miss ticks (Tick)
system.cpu.icache.overallMissLatency::total     86185748                       # number of overall miss ticks (Tick)
system.cpu.icache.demandAccesses::cpu.inst    173461041                       # number of demand (read+write) accesses (Count)
system.cpu.icache.demandAccesses::total     173461041                       # number of demand (read+write) accesses (Count)
system.cpu.icache.overallAccesses::cpu.inst    173461041                       # number of overall (read+write) accesses (Count)
system.cpu.icache.overallAccesses::total    173461041                       # number of overall (read+write) accesses (Count)
system.cpu.icache.demandMissRate::cpu.inst     0.000007                       # miss rate for demand accesses (Ratio)
system.cpu.icache.demandMissRate::total      0.000007                       # miss rate for demand accesses (Ratio)
system.cpu.icache.overallMissRate::cpu.inst     0.000007                       # miss rate for overall accesses (Ratio)
system.cpu.icache.overallMissRate::total     0.000007                       # miss rate for overall accesses (Ratio)
system.cpu.icache.demandAvgMissLatency::cpu.inst 68184.927215                       # average overall miss latency in ticks ((Tick/Count))
system.cpu.icache.demandAvgMissLatency::total 68184.927215                       # average overall miss latency in ticks ((Tick/Count))
system.cpu.icache.overallAvgMissLatency::cpu.inst 68184.927215                       # average overall miss latency ((Tick/Count))
system.cpu.icache.overallAvgMissLatency::total 68184.927215                       # average overall miss latency ((Tick/Count))
system.cpu.icache.blockedCycles::no_mshrs         2663                       # number of cycles access was blocked (Cycle)
system.cpu.icache.blockedCycles::no_targets            0                       # number of cycles access was blocked (Cycle)
system.cpu.icache.blockedCauses::no_mshrs            9                       # number of times access was blocked (Count)
system.cpu.icache.blockedCauses::no_targets            0                       # number of times access was blocked (Count)
system.cpu.icache.avgBlocked::no_mshrs     295.888889                       # average number of cycles each access was blocked ((Cycle/Count))
system.cpu.icache.avgBlocked::no_targets          nan                       # average number of cycles each access was blocked ((Cycle/Count))
system.cpu.icache.demandMshrHits::cpu.inst          521                       # number of demand (read+write) MSHR hits (Count)
system.cpu.icache.demandMshrHits::total           521                       # number of demand (read+write) MSHR hits (Count)
system.cpu.icache.overallMshrHits::cpu.inst          521                       # number of overall MSHR hits (Count)
system.cpu.icache.overallMshrHits::total          521                       # number of overall MSHR hits (Count)
system.cpu.icache.demandMshrMisses::cpu.inst          743                       # number of demand (read+write) MSHR misses (Count)
system.cpu.icache.demandMshrMisses::total          743                       # number of demand (read+write) MSHR misses (Count)
system.cpu.icache.overallMshrMisses::cpu.inst          743                       # number of overall MSHR misses (Count)
system.cpu.icache.overallMshrMisses::total          743                       # number of overall MSHR misses (Count)
system.cpu.icache.demandMshrMissLatency::cpu.inst     54924373                       # number of demand (read+write) MSHR miss ticks (Tick)
system.cpu.icache.demandMshrMissLatency::total     54924373                       # number of demand (read+write) MSHR miss ticks (Tick)
system.cpu.icache.overallMshrMissLatency::cpu.inst     54924373                       # number of overall MSHR miss ticks (Tick)
system.cpu.icache.overallMshrMissLatency::total     54924373                       # number of overall MSHR miss ticks (Tick)
system.cpu.icache.demandMshrMissRate::cpu.inst     0.000004                       # mshr miss ratio for demand accesses (Ratio)
system.cpu.icache.demandMshrMissRate::total     0.000004                       # mshr miss ratio for demand accesses (Ratio)
system.cpu.icache.overallMshrMissRate::cpu.inst     0.000004                       # mshr miss ratio for overall accesses (Ratio)
system.cpu.icache.overallMshrMissRate::total     0.000004                       # mshr miss ratio for overall accesses (Ratio)
system.cpu.icache.demandAvgMshrMissLatency::cpu.inst 73922.440108                       # average overall mshr miss latency ((Tick/Count))
system.cpu.icache.demandAvgMshrMissLatency::total 73922.440108                       # average overall mshr miss latency ((Tick/Count))
system.cpu.icache.overallAvgMshrMissLatency::cpu.inst 73922.440108                       # average overall mshr miss latency ((Tick/Count))
system.cpu.icache.overallAvgMshrMissLatency::total 73922.440108                       # average overall mshr miss latency ((Tick/Count))
system.cpu.icache.replacements                    266                       # number of replacements (Count)
system.cpu.icache.ReadReq.hits::cpu.inst    173459777                       # number of ReadReq hits (Count)
system.cpu.icache.ReadReq.hits::total       173459777                       # number of ReadReq hits (Count)
system.cpu.icache.ReadReq.misses::cpu.inst         1264                       # number of ReadReq misses (Count)
system.cpu.icache.ReadReq.misses::total          1264                       # number of ReadReq misses (Count)
system.cpu.icache.ReadReq.missLatency::cpu.inst     86185748                       # number of ReadReq miss ticks (Tick)
system.cpu.icache.ReadReq.missLatency::total     86185748                       # number of ReadReq miss ticks (Tick)
system.cpu.icache.ReadReq.accesses::cpu.inst    173461041                       # number of ReadReq accesses(hits+misses) (Count)
system.cpu.icache.ReadReq.accesses::total    173461041                       # number of ReadReq accesses(hits+misses) (Count)
system.cpu.icache.ReadReq.missRate::cpu.inst     0.000007                       # miss rate for ReadReq accesses (Ratio)
system.cpu.icache.ReadReq.missRate::total     0.000007                       # miss rate for ReadReq accesses (Ratio)
system.cpu.icache.ReadReq.avgMissLatency::cpu.inst 68184.927215                       # average ReadReq miss latency ((Tick/Count))
system.cpu.icache.ReadReq.avgMissLatency::total 68184.927215                       # average ReadReq miss latency ((Tick/Count))
system.cpu.icache.ReadReq.mshrHits::cpu.inst          521                       # number of ReadReq MSHR hits (Count)
system.cpu.icache.ReadReq.mshrHits::total          521                       # number of ReadReq MSHR hits (Count)
system.cpu.icache.ReadReq.mshrMisses::cpu.inst          743                       # number of ReadReq MSHR misses (Count)
system.cpu.icache.ReadReq.mshrMisses::total          743                       # number of ReadReq MSHR misses (Count)
system.cpu.icache.ReadReq.mshrMissLatency::cpu.inst     54924373                       # number of ReadReq MSHR miss ticks (Tick)
system.cpu.icache.ReadReq.mshrMissLatency::total     54924373                       # number of ReadReq MSHR miss ticks (Tick)
system.cpu.icache.ReadReq.mshrMissRate::cpu.inst     0.000004                       # mshr miss rate for ReadReq accesses (Ratio)
system.cpu.icache.ReadReq.mshrMissRate::total     0.000004                       # mshr miss rate for ReadReq accesses (Ratio)
system.cpu.icache.ReadReq.avgMshrMissLatency::cpu.inst 73922.440108                       # average ReadReq mshr miss latency ((Tick/Count))
system.cpu.icache.ReadReq.avgMshrMissLatency::total 73922.440108                       # average ReadReq mshr miss latency ((Tick/Count))
system.cpu.icache.power_state.pwrStateResidencyTicks::UNDEFINED 347787246625                       # Cumulative time (in ticks) in various power states (Tick)
system.cpu.icache.tags.tagsInUse           354.970941                       # Average ticks per tags in use ((Tick/Count))
system.cpu.icache.tags.totalRefs            173460520                       # Total number of references to valid blocks. (Count)
system.cpu.icache.tags.sampledRefs                743                       # Sample count of references to valid blocks. (Count)
system.cpu.icache.tags.avgRefs           233459.650067                       # Average number of references to valid blocks. ((Count/Count))
system.cpu.icache.tags.warmupTick               82000                       # The tick when the warmup percentage was hit. (Tick)
system.cpu.icache.tags.occupancies::cpu.inst   354.970941                       # Average occupied blocks per tick, per requestor ((Count/Tick))
system.cpu.icache.tags.avgOccs::cpu.inst     0.693303                       # Average percentage of cache occupancy ((Ratio/Tick))
system.cpu.icache.tags.avgOccs::total        0.693303                       # Average percentage of cache occupancy ((Ratio/Tick))
system.cpu.icache.tags.occupanciesTaskId::1024          477                       # Occupied blocks per task id (Count)
system.cpu.icache.tags.ageTaskId_1024::4          477                       # Occupied blocks per task id, per block age (Count)
system.cpu.icache.tags.ratioOccsTaskId::1024     0.931641                       # Ratio of occupied blocks and all blocks, per task id (Ratio)
system.cpu.icache.tags.tagAccesses          693844907                       # Number of tag accesses (Count)
system.cpu.icache.tags.dataAccesses         693844907                       # Number of data accesses (Count)
system.cpu.icache.tags.power_state.pwrStateResidencyTicks::UNDEFINED 347787246625                       # Cumulative time (in ticks) in various power states (Tick)
system.cpu.iew.idleCycles                           0                       # Number of cycles IEW is idle (Cycle)
system.cpu.iew.squashCycles                  10947613                       # Number of cycles IEW is squashing (Cycle)
system.cpu.iew.blockCycles                  226622578                       # Number of cycles IEW is blocking (Cycle)
system.cpu.iew.unblockCycles                937440536                       # Number of cycles IEW is unblocking (Cycle)
system.cpu.iew.dispatchedInsts             1659495041                       # Number of instructions dispatched to IQ (Count)
system.cpu.iew.dispSquashedInsts              1996747                       # Number of squashed instructions skipped by dispatch (Count)
system.cpu.iew.dispLoadInsts                510085024                       # Number of dispatched load instructions (Count)
system.cpu.iew.dispStoreInsts               279066094                       # Number of dispatched store instructions (Count)
system.cpu.iew.dispNonSpecInsts                  3762                       # Number of dispatched non-speculative instructions (Count)
system.cpu.iew.iqFullEvents                   2228576                       # Number of times the IQ has become full, causing a stall (Count)
system.cpu.iew.lsqFullEvents                929976833                       # Number of times the LSQ has become full, causing a stall (Count)
system.cpu.iew.memOrderViolationEvents         309461                       # Number of memory order violations (Count)
system.cpu.iew.predictedTakenIncorrect        5953724                       # Number of branches that were predicted taken incorrectly (Count)
system.cpu.iew.predictedNotTakenIncorrect      6897333                       # Number of branches that were predicted not taken incorrectly (Count)
system.cpu.iew.branchMispredicts             12851057                       # Number of branch mispredicts detected at execute (Count)
system.cpu.iew.instsToCommit               1404928213                       # Cumulative count of insts sent to commit (Count)
system.cpu.iew.writebackCount              1389354812                       # Cumulative count of insts written-back (Count)
system.cpu.iew.producerInst                 795085443                       # Number of instructions producing a value (Count)
system.cpu.iew.consumerInst                1224893985                       # Number of instructions consuming a value (Count)
system.cpu.iew.wbRate                        0.499355                       # Insts written-back per cycle ((Count/Cycle))
system.cpu.iew.wbFanout                      0.649106                       # Average fanout of values written-back ((Count/Count))
system.cpu.lsq0.forwLoads                    47767296                       # Number of loads that had data forwarded from stores (Count)
system.cpu.lsq0.squashedLoads               143373679                       # Number of loads squashed (Count)
system.cpu.lsq0.ignoredResponses               139752                       # Number of memory responses ignored because the instruction is squashed (Count)
system.cpu.lsq0.memOrderViolation              309461                       # Number of memory ordering violations (Count)
system.cpu.lsq0.squashedStores               63885792                       # Number of stores squashed (Count)
system.cpu.lsq0.rescheduledLoads              8034141                       # Number of loads that were rescheduled (Count)
system.cpu.lsq0.blockedByCache               12151948                       # Number of times an access to memory failed due to the cache being blocked (Count)
system.cpu.lsq0.loadToUse::samples          359040299                       # Distribution of cycle latency between the first time a load is issued and its completion (Unspecified)
system.cpu.lsq0.loadToUse::mean             29.722360                       # Distribution of cycle latency between the first time a load is issued and its completion (Unspecified)
system.cpu.lsq0.loadToUse::stdev           166.146197                       # Distribution of cycle latency between the first time a load is issued and its completion (Unspecified)
system.cpu.lsq0.loadToUse::0-9              307673663     85.69%     85.69% # Distribution of cycle latency between the first time a load is issued and its completion (Unspecified)
system.cpu.lsq0.loadToUse::10-19              4056469      1.13%     86.82% # Distribution of cycle latency between the first time a load is issued and its completion (Unspecified)
system.cpu.lsq0.loadToUse::20-29              7772369      2.16%     88.99% # Distribution of cycle latency between the first time a load is issued and its completion (Unspecified)
system.cpu.lsq0.loadToUse::30-39              7244322      2.02%     91.01% # Distribution of cycle latency between the first time a load is issued and its completion (Unspecified)
system.cpu.lsq0.loadToUse::40-49              2812205      0.78%     91.79% # Distribution of cycle latency between the first time a load is issued and its completion (Unspecified)
system.cpu.lsq0.loadToUse::50-59               700987      0.20%     91.98% # Distribution of cycle latency between the first time a load is issued and its completion (Unspecified)
system.cpu.lsq0.loadToUse::60-69               807580      0.22%     92.21% # Distribution of cycle latency between the first time a load is issued and its completion (Unspecified)
[...]
system.mem_ctrl.dram.perBankRdBursts::7        298712                       # Per bank write bursts (Count)
system.mem_ctrl.dram.perBankRdBursts::8        298424                       # Per bank write bursts (Count)
system.mem_ctrl.dram.perBankRdBursts::9        297303                       # Per bank write bursts (Count)
system.mem_ctrl.dram.perBankRdBursts::10       297004                       # Per bank write bursts (Count)
system.mem_ctrl.dram.perBankRdBursts::11       297330                       # Per bank write bursts (Count)
system.mem_ctrl.dram.perBankRdBursts::12       296077                       # Per bank write bursts (Count)
system.mem_ctrl.dram.perBankRdBursts::13       296981                       # Per bank write bursts (Count)
system.mem_ctrl.dram.perBankRdBursts::14       296256                       # Per bank write bursts (Count)
system.mem_ctrl.dram.perBankRdBursts::15       298135                       # Per bank write bursts (Count)
system.mem_ctrl.dram.perBankRdBursts::16       297440                       # Per bank write bursts (Count)
system.mem_ctrl.dram.perBankRdBursts::17       294913                       # Per bank write bursts (Count)
system.mem_ctrl.dram.perBankRdBursts::18       296985                       # Per bank write bursts (Count)
system.mem_ctrl.dram.perBankRdBursts::19       298930                       # Per bank write bursts (Count)
system.mem_ctrl.dram.perBankRdBursts::20       296189                       # Per bank write bursts (Count)
system.mem_ctrl.dram.perBankRdBursts::21       295982                       # Per bank write bursts (Count)
system.mem_ctrl.dram.perBankRdBursts::22       296212                       # Per bank write bursts (Count)
system.mem_ctrl.dram.perBankRdBursts::23       296306                       # Per bank write bursts (Count)
system.mem_ctrl.dram.perBankRdBursts::24       297011                       # Per bank write bursts (Count)
system.mem_ctrl.dram.perBankRdBursts::25       296122                       # Per bank write bursts (Count)
system.mem_ctrl.dram.perBankRdBursts::26       296443                       # Per bank write bursts (Count)
system.mem_ctrl.dram.perBankRdBursts::27       294044                       # Per bank write bursts (Count)
system.mem_ctrl.dram.perBankRdBursts::28       300265                       # Per bank write bursts (Count)
system.mem_ctrl.dram.perBankRdBursts::29       301634                       # Per bank write bursts (Count)
system.mem_ctrl.dram.perBankRdBursts::30       300321                       # Per bank write bursts (Count)
system.mem_ctrl.dram.perBankRdBursts::31       298714                       # Per bank write bursts (Count)
system.mem_ctrl.dram.perBankWrBursts::0        163094                       # Per bank write bursts (Count)
system.mem_ctrl.dram.perBankWrBursts::1        164687                       # Per bank write bursts (Count)
system.mem_ctrl.dram.perBankWrBursts::2        163804                       # Per bank write bursts (Count)
system.mem_ctrl.dram.perBankWrBursts::3        163813                       # Per bank write bursts (Count)
system.mem_ctrl.dram.perBankWrBursts::4        164330                       # Per bank write bursts (Count)
system.mem_ctrl.dram.perBankWrBursts::5        163892                       # Per bank write bursts (Count)
system.mem_ctrl.dram.perBankWrBursts::6        164820                       # Per bank write bursts (Count)
system.mem_ctrl.dram.perBankWrBursts::7        163851                       # Per bank write bursts (Count)
system.mem_ctrl.dram.perBankWrBursts::8        163704                       # Per bank write bursts (Count)
system.mem_ctrl.dram.perBankWrBursts::9        162788                       # Per bank write bursts (Count)
system.mem_ctrl.dram.perBankWrBursts::10       162732                       # Per bank write bursts (Count)
system.mem_ctrl.dram.perBankWrBursts::11       162483                       # Per bank write bursts (Count)
system.mem_ctrl.dram.perBankWrBursts::12       162480                       # Per bank write bursts (Count)
system.mem_ctrl.dram.perBankWrBursts::13       163166                       # Per bank write bursts (Count)
system.mem_ctrl.dram.perBankWrBursts::14       162825                       # Per bank write bursts (Count)
system.mem_ctrl.dram.perBankWrBursts::15       163373                       # Per bank write bursts (Count)
system.mem_ctrl.dram.perBankWrBursts::16       163259                       # Per bank write bursts (Count)
system.mem_ctrl.dram.perBankWrBursts::17       161788                       # Per bank write bursts (Count)
system.mem_ctrl.dram.perBankWrBursts::18       163046                       # Per bank write bursts (Count)
system.mem_ctrl.dram.perBankWrBursts::19       163249                       # Per bank write bursts (Count)
system.mem_ctrl.dram.perBankWrBursts::20       162573                       # Per bank write bursts (Count)
system.mem_ctrl.dram.perBankWrBursts::21       161082                       # Per bank write bursts (Count)
system.mem_ctrl.dram.perBankWrBursts::22       161751                       # Per bank write bursts (Count)
system.mem_ctrl.dram.perBankWrBursts::23       160797                       # Per bank write bursts (Count)
system.mem_ctrl.dram.perBankWrBursts::24       162131                       # Per bank write bursts (Count)
system.mem_ctrl.dram.perBankWrBursts::25       161044                       # Per bank write bursts (Count)
system.mem_ctrl.dram.perBankWrBursts::26       161597                       # Per bank write bursts (Count)
system.mem_ctrl.dram.perBankWrBursts::27       159739                       # Per bank write bursts (Count)
system.mem_ctrl.dram.perBankWrBursts::28       164290                       # Per bank write bursts (Count)
system.mem_ctrl.dram.perBankWrBursts::29       164304                       # Per bank write bursts (Count)
system.mem_ctrl.dram.perBankWrBursts::30       164200                       # Per bank write bursts (Count)
system.mem_ctrl.dram.perBankWrBursts::31       163114                       # Per bank write bursts (Count)
system.mem_ctrl.dram.totQLat             179730940018                       # Total ticks spent queuing (Tick)
system.mem_ctrl.dram.totBusLat            31768144324                       # Total ticks spent in databus transfers (Tick)
system.mem_ctrl.dram.totMemAccLat        346504163462                       # Total ticks spent from burst creation until serviced by the DRAM (Tick)
system.mem_ctrl.dram.avgQLat                 18851.07                       # Average queueing delay per DRAM burst ((Tick/Count))
system.mem_ctrl.dram.avgBusLat                3332.00                       # Average bus latency per DRAM burst ((Tick/Count))
system.mem_ctrl.dram.avgMemAccLat            36343.07                       # Average memory access latency per DRAM burst ((Tick/Count))
system.mem_ctrl.dram.readRowHits              8529758                       # Number of row buffer hits during reads (Count)
system.mem_ctrl.dram.writeRowHits             4472823                       # Number of row buffer hits during writes (Count)
system.mem_ctrl.dram.readRowHitRate             89.46                       # Row buffer hit rate for reads (Ratio)
system.mem_ctrl.dram.writeRowHitRate            85.79                       # Row buffer hit rate for writes (Ratio)
system.mem_ctrl.dram.bytesPerActivate::samples      1745482                       # Bytes accessed per row activation (Byte)
system.mem_ctrl.dram.bytesPerActivate::mean   540.753804                       # Bytes accessed per row activation (Byte)
system.mem_ctrl.dram.bytesPerActivate::gmean   351.679260                       # Bytes accessed per row activation (Byte)
system.mem_ctrl.dram.bytesPerActivate::stdev   380.397911                       # Bytes accessed per row activation (Byte)
system.mem_ctrl.dram.bytesPerActivate::0-127       401051     22.98%     22.98% # Bytes accessed per row activation (Byte)
system.mem_ctrl.dram.bytesPerActivate::128-255       147483      8.45%     31.43% # Bytes accessed per row activation (Byte)
system.mem_ctrl.dram.bytesPerActivate::256-383        61974      3.55%     34.98% # Bytes accessed per row activation (Byte)
system.mem_ctrl.dram.bytesPerActivate::384-511        69678      3.99%     38.97% # Bytes accessed per row activation (Byte)
system.mem_ctrl.dram.bytesPerActivate::512-639       412479     23.63%     62.60% # Bytes accessed per row activation (Byte)
system.mem_ctrl.dram.bytesPerActivate::640-767        50652      2.90%     65.50% # Bytes accessed per row activation (Byte)
system.mem_ctrl.dram.bytesPerActivate::768-895        36031      2.06%     67.57% # Bytes accessed per row activation (Byte)
system.mem_ctrl.dram.bytesPerActivate::896-1023        32030      1.84%     69.40% # Bytes accessed per row activation (Byte)
system.mem_ctrl.dram.bytesPerActivate::1024-1151       534104     30.60%    100.00% # Bytes accessed per row activation (Byte)
system.mem_ctrl.dram.bytesPerActivate::total      1745482                       # Bytes accessed per row activation (Byte)
system.mem_ctrl.dram.bytesRead              610192448                       # Total bytes read (Byte)
system.mem_ctrl.dram.bytesWritten           333683584                       # Total bytes written (Byte)
system.mem_ctrl.dram.avgRdBW              1754.499206                       # Average DRAM read bandwidth in MiBytes/s ((Byte/Second))
system.mem_ctrl.dram.avgWrBW               959.447442                       # Average DRAM write bandwidth in MiBytes/s ((Byte/Second))
system.mem_ctrl.dram.peakBW                  19207.00                       # Theoretical peak bandwidth in MiByte/s ((Byte/Second))
system.mem_ctrl.dram.busUtil                    14.13                       # Data bus utilization in percentage (Ratio)
system.mem_ctrl.dram.busUtilRead                 9.13                       # Data bus utilization in percentage for reads (Ratio)
system.mem_ctrl.dram.busUtilWrite                5.00                       # Data bus utilization in percentage for writes (Ratio)
system.mem_ctrl.dram.pageHitRate                88.16                       # Row buffer hit rate, read and write combined (Ratio)
system.mem_ctrl.dram.power_state.pwrStateResidencyTicks::UNDEFINED 347787246625                       # Cumulative time (in ticks) in various power states (Tick)
system.mem_ctrl.dram.rank0.actEnergy     2740821632.640154                       # Energy for activate commands per rank (pJ) (Joule)
system.mem_ctrl.dram.rank0.preEnergy     3643887221.855830                       # Energy for precharge commands per rank (pJ) (Joule)
system.mem_ctrl.dram.rank0.readEnergy    20092506949.130817                       # Energy for read commands per rank (pJ) (Joule)
system.mem_ctrl.dram.rank0.writeEnergy   9831631693.630285                       # Energy for write commands per rank (pJ) (Joule)
system.mem_ctrl.dram.rank0.refreshEnergy 61883433229.351250                       # Energy for refresh commands per rank (pJ) (Joule)
system.mem_ctrl.dram.rank0.actBackEnergy 205463246538.085419                       # Energy for active background per rank (pJ) (Joule)
system.mem_ctrl.dram.rank0.preBackEnergy 69165449661.220886                       # Energy for precharge background per rank (pJ) (Joule)
system.mem_ctrl.dram.rank0.actPowerDownEnergy            0                       # Energy for active power-down per rank (pJ) (Joule)
system.mem_ctrl.dram.rank0.prePowerDownEnergy            0                       # Energy for precharge power-down per rank (pJ) (Joule)
system.mem_ctrl.dram.rank0.selfRefreshEnergy            0                       # Energy for self refresh per rank (pJ) (Joule)
system.mem_ctrl.dram.rank0.totalEnergy   372820976925.965881                       # Total energy per rank (pJ) (Joule)
system.mem_ctrl.dram.rank0.averagePower   1071.980012                       # Core power per rank (mW) (Watt)
system.mem_ctrl.dram.rank0.totalIdleTime            0                       # Total Idle time Per DRAM Rank (Tick)
system.mem_ctrl.dram.rank0.pwrStateTime::IDLE 104212970178                       # Time in different power states (Tick)
system.mem_ctrl.dram.rank0.pwrStateTime::REF  15634150000                       # Time in different power states (Tick)
system.mem_ctrl.dram.rank0.pwrStateTime::SREF            0                       # Time in different power states (Tick)
system.mem_ctrl.dram.rank0.pwrStateTime::PRE_PDN            0                       # Time in different power states (Tick)
system.mem_ctrl.dram.rank0.pwrStateTime::ACT 227940126447                       # Time in different power states (Tick)
system.mem_ctrl.dram.rank0.pwrStateTime::ACT_PDN            0                       # Time in different power states (Tick)
system.mem_ctrl.dram.rank1.actEnergy     2702903845.824142                       # Energy for activate commands per rank (pJ) (Joule)
system.mem_ctrl.dram.rank1.preEnergy     3593476010.409461                       # Energy for precharge commands per rank (pJ) (Joule)
system.mem_ctrl.dram.rank1.readEnergy    20011598445.483204                       # Energy for read commands per rank (pJ) (Joule)
system.mem_ctrl.dram.rank1.writeEnergy   9764437302.142342                       # Energy for write commands per rank (pJ) (Joule)
system.mem_ctrl.dram.rank1.refreshEnergy 61883433229.351250                       # Energy for refresh commands per rank (pJ) (Joule)
system.mem_ctrl.dram.rank1.actBackEnergy 201642470372.116638                       # Energy for active background per rank (pJ) (Joule)
system.mem_ctrl.dram.rank1.preBackEnergy 72101187280.265915                       # Energy for precharge background per rank (pJ) (Joule)
system.mem_ctrl.dram.rank1.actPowerDownEnergy            0                       # Energy for active power-down per rank (pJ) (Joule)
system.mem_ctrl.dram.rank1.prePowerDownEnergy            0                       # Energy for precharge power-down per rank (pJ) (Joule)
system.mem_ctrl.dram.rank1.selfRefreshEnergy            0                       # Energy for self refresh per rank (pJ) (Joule)
system.mem_ctrl.dram.rank1.totalEnergy   371699506485.649658                       # Total energy per rank (pJ) (Joule)
system.mem_ctrl.dram.rank1.averagePower   1068.755425                       # Core power per rank (mW) (Watt)
system.mem_ctrl.dram.rank1.totalIdleTime            0                       # Total Idle time Per DRAM Rank (Tick)
system.mem_ctrl.dram.rank1.pwrStateTime::IDLE 108716607931                       # Time in different power states (Tick)
system.mem_ctrl.dram.rank1.pwrStateTime::REF  15634150000                       # Time in different power states (Tick)
system.mem_ctrl.dram.rank1.pwrStateTime::SREF            0                       # Time in different power states (Tick)
system.mem_ctrl.dram.rank1.pwrStateTime::PRE_PDN            0                       # Time in different power states (Tick)
system.mem_ctrl.dram.rank1.pwrStateTime::ACT 223436488694                       # Time in different power states (Tick)
system.mem_ctrl.dram.rank1.pwrStateTime::ACT_PDN            0                       # Time in different power states (Tick)
system.mem_ctrl.power_state.pwrStateResidencyTicks::UNDEFINED 347787246625                       # Cumulative time (in ticks) in various power states (Tick)
system.membus.transDist::ReadResp             4472656                       # Transaction distribution (Count)
system.membus.transDist::WritebackDirty       5213870                       # Transaction distribution (Count)
system.membus.transDist::CleanEvict           4289818                       # Transaction distribution (Count)
system.membus.transDist::ReadExReq            5064359                       # Transaction distribution (Count)
system.membus.transDist::ReadExResp           5064359                       # Transaction distribution (Count)
system.membus.transDist::ReadSharedReq        4472656                       # Transaction distribution (Count)
system.membus.pktCount_system.l2cache.mem_side_port::system.mem_ctrl.port     28577718                       # Packet count per connected requestor and responder (Count)
system.membus.pktCount::total                28577718                       # Packet count per connected requestor and responder (Count)
system.membus.pktSize_system.l2cache.mem_side_port::system.mem_ctrl.port    944056640                       # Cumulative packet size per connected requestor and responder (Byte)
system.membus.pktSize::total                944056640                       # Cumulative packet size per connected requestor and responder (Byte)
system.membus.snoops                                0                       # Total snoops (Count)
system.membus.snoopTraffic                          0                       # Total snoop traffic (Byte)
system.membus.snoopFanout::samples            9537015                       # Request fanout histogram (Count)
system.membus.snoopFanout::mean                     0                       # Request fanout histogram (Count)
system.membus.snoopFanout::stdev                    0                       # Request fanout histogram (Count)
system.membus.snoopFanout::underflows               0      0.00%      0.00% # Request fanout histogram (Count)
system.membus.snoopFanout::0                  9537015    100.00%    100.00% # Request fanout histogram (Count)
system.membus.snoopFanout::1                        0      0.00%    100.00% # Request fanout histogram (Count)
system.membus.snoopFanout::overflows                0      0.00%    100.00% # Request fanout histogram (Count)
system.membus.snoopFanout::min_value                0                       # Request fanout histogram (Count)
system.membus.snoopFanout::max_value                0                       # Request fanout histogram (Count)
system.membus.snoopFanout::total              9537015                       # Request fanout histogram (Count)
system.membus.power_state.pwrStateResidencyTicks::UNDEFINED 347787246625                       # Cumulative time (in ticks) in various power states (Tick)
system.membus.reqLayer0.occupancy         20330355875                       # Layer occupancy (ticks) (Tick)
system.membus.reqLayer0.utilization               0.1                       # Layer utilization (Ratio)
system.membus.respLayer0.occupancy        25083044260                       # Layer occupancy (ticks) (Tick)
system.membus.respLayer0.utilization              0.1                       # Layer utilization (Ratio)
system.membus.snoop_filter.totRequests       19040703                       # Total number of requests made to the snoop filter. (Count)
system.membus.snoop_filter.hitSingleRequests      9503773                       # Number of requests hitting in the snoop filter with a single holder of the requested data. (Count)
system.membus.snoop_filter.hitMultiRequests            0                       # Number of requests hitting in the snoop filter with multiple (>1) holders of the requested data. (Count)
system.membus.snoop_filter.totSnoops                0                       # Total number of snoops made to the snoop filter. (Count)
system.membus.snoop_filter.hitSingleSnoops            0                       # Number of snoops hitting in the snoop filter with a single holder of the requested data. (Count)
system.membus.snoop_filter.hitMultiSnoops            0                       # Number of snoops hitting in the snoop filter with multiple (>1) holders of the requested data. (Count)
system.workload.inst.arm                            0                       # number of arm instructions executed (Count)
system.workload.inst.quiesce                        0                       # number of quiesce instructions executed (Count)

---------- End Simulation Statistics   ----------
