
---------- Begin Simulation Statistics ----------
simSeconds                                   0.875840                       # Number of seconds simulated (Second)
simTicks                                 875840271658                       # Number of ticks simulated (Tick)
finalTick                                875840271658                       # Number of ticks from beginning of simulation (restored from checkpoints and never reset) (Tick)
simFreq                                  1000000000000                       # The number of ticks per simulated second ((Tick/Second))
hostSeconds                                   4592.95                       # Real time elapsed on the host (Second)
hostTickRate                                190692434                       # The number of ticks simulated per host second (ticks/s) ((Tick/Second))
hostMemory                                    2296668                       # Number of bytes of host memory used (Byte)
simInsts                                   1000000000                       # Number of instructions simulated (Count)
simOps                                     1160112256                       # Number of ops (including micro ops) simulated (Count)
hostInstRate                                   217725                       # Simulator instruction rate (inst/s) ((Count/Second))
hostOpRate                                     252586                       # Simulator op (including micro ops) rate (op/s) ((Count/Second))
system.clk_domain.clock                           500                       # Clock period in ticks (Tick)
system.clk_domain.voltage_domain.voltage            1                       # Voltage in Volts (Volt)
system.cpu.numCycles                        788335079                       # Number of cpu cycles simulated (Cycle)
system.cpu.numWorkItemsStarted                      0                       # Number of work items this cpu started (Count)
system.cpu.numWorkItemsCompleted                    0                       # Number of work items this cpu completed (Count)
system.cpu.instsAdded                      1622475538                       # Number of instructions added to the IQ (excludes non-spec) (Count)
system.cpu.nonSpecInstsAdded                     6661                       # Number of non-speculative instructions added to the IQ (Count)
system.cpu.instsIssued                     1444907984                       # Number of instructions issued (Count)
system.cpu.squashedInstsIssued                1329568                       # Number of squashed instructions issued (Count)
system.cpu.squashedInstsExamined            462369838                       # Number of squashed instructions iterated over during squash; mainly for profiling (Count)
system.cpu.squashedOperandsExamined        1209060878                       # Number of squashed operands that are examined and possibly removed from graph (Count)
system.cpu.squashedNonSpecRemoved                6122                       # Number of squashed non-spec instructions that were removed (Count)
system.cpu.numIssuedDist::samples           788319975                       # Number of insts issued each cycle (Count)
system.cpu.numIssuedDist::mean               1.832895                       # Number of insts issued each cycle (Count)
system.cpu.numIssuedDist::stdev              2.047131                       # Number of insts issued each cycle (Count)
system.cpu.numIssuedDist::underflows                0      0.00%      0.00% # Number of insts issued each cycle (Count)
system.cpu.numIssuedDist::0                 326039402     41.36%     41.36% # Number of insts issued each cycle (Count)
system.cpu.numIssuedDist::1                 102117404     12.95%     54.31% # Number of insts issued each cycle (Count)
system.cpu.numIssuedDist::2                  96013323     12.18%     66.49% # Number of insts issued each cycle (Count)
system.cpu.numIssuedDist::3                  80615137     10.23%     76.72% # Number of insts issued each cycle (Count)
system.cpu.numIssuedDist::4                  88744612     11.26%     87.98% # Number of insts issued each cycle (Count)
system.cpu.numIssuedDist::5                  42289619      5.36%     93.34% # Number of insts issued each cycle (Count)
system.cpu.numIssuedDist::6                  32898878      4.17%     97.51% # Number of insts issued each cycle (Count)
system.cpu.numIssuedDist::7                  11714088      1.49%     99.00% # Number of insts issued each cycle (Count)
system.cpu.numIssuedDist::8                   7887512      1.00%    100.00% # Number of insts issued each cycle (Count)
system.cpu.numIssuedDist::overflows                 0      0.00%    100.00% # Number of insts issued each cycle (Count)
system.cpu.numIssuedDist::min_value                 0                       # Number of insts issued each cycle (Count)
system.cpu.numIssuedDist::max_value                 8                       # Number of insts issued each cycle (Count)
system.cpu.numIssuedDist::total             788319975                       # Number of insts issued each cycle (Count)
system.cpu.statFuBusy::No_OpClass                   0      0.00%      0.00% # attempts to use FU when none available (Count)
system.cpu.statFuBusy::IntAlu                 2570142      5.15%      5.15% # attempts to use FU when none available (Count)
system.cpu.statFuBusy::IntMult                      0      0.00%      5.15% # attempts to use FU when none available (Count)
system.cpu.statFuBusy::IntDiv                       0      0.00%      5.15% # attempts to use FU when none available (Count)
system.cpu.statFuBusy::FloatAdd                     0      0.00%      5.15% # attempts to use FU when none available (Count)
system.cpu.statFuBusy::FloatCmp                     0      0.00%      5.15% # attempts to use FU when none available (Count)
system.cpu.statFuBusy::FloatCvt                     0      0.00%      5.15% # attempts to use FU when none available (Count)
system.cpu.statFuBusy::FloatMult                    0      0.00%      5.15% # attempts to use FU when none available (Count)
system.cpu.statFuBusy::FloatMultAcc                 0      0.00%      5.15% # attempts to use FU when none available (Count)
system.cpu.statFuBusy::FloatDiv                     0      0.00%      5.15% # attempts to use FU when none available (Count)
system.cpu.statFuBusy::FloatMisc                    0      0.00%      5.15% # attempts to use FU when none available (Count)
system.cpu.statFuBusy::FloatSqrt                    0      0.00%      5.15% # attempts to use FU when none available (Count)
system.cpu.statFuBusy::SimdAdd                      0      0.00%      5.15% # attempts to use FU when none available (Count)
system.cpu.statFuBusy::SimdAddAcc                   0      0.00%      5.15% # attempts to use FU when none available (Count)
system.cpu.statFuBusy::SimdAlu                      0      0.00%      5.15% # attempts to use FU when none available (Count)
system.cpu.statFuBusy::SimdCmp                      0      0.00%      5.15% # attempts to use FU when none available (Count)
system.cpu.statFuBusy::SimdCvt                      0      0.00%      5.15% # attempts to use FU when none available (Count)
system.cpu.statFuBusy::SimdMisc                     0      0.00%      5.15% # attempts to use FU when none available (Count)
system.cpu.statFuBusy::SimdMult                     0      0.00%      5.15% # attempts to use FU when none available (Count)
system.cpu.statFuBusy::SimdMultAcc                  0      0.00%      5.15% # attempts to use FU when none available (Count)
system.cpu.statFuBusy::SimdShift                    0      0.00%      5.15% # attempts to use FU when none available (Count)
system.cpu.statFuBusy::SimdShiftAcc                 0      0.00%      5.15% # attempts to use FU when none available (Count)
system.cpu.statFuBusy::SimdDiv                      0      0.00%      5.15% # attempts to use FU when none available (Count)
system.cpu.statFuBusy::SimdSqrt                     0      0.00%      5.15% # attempts to use FU when none available (Count)
system.cpu.statFuBusy::SimdFloatAdd                 0      0.00%      5.15% # attempts to use FU when none available (Count)
system.cpu.statFuBusy::SimdFloatAlu                 0      0.00%      5.15% # attempts to use FU when none available (Count)
system.cpu.statFuBusy::SimdFloatCmp                 0      0.00%      5.15% # attempts to use FU when none available (Count)
system.cpu.statFuBusy::SimdFloatCvt                 0      0.00%      5.15% # attempts to use FU when none available (Count)
system.cpu.statFuBusy::SimdFloatDiv                 0      0.00%      5.15% # attempts to use FU when none available (Count)
system.cpu.statFuBusy::SimdFloatMisc                0      0.00%      5.15% # attempts to use FU when none available (Count)
system.cpu.statFuBusy::SimdFloatMult                0      0.00%      5.15% # attempts to use FU when none available (Count)
system.cpu.statFuBusy::SimdFloatMultAcc             0      0.00%      5.15% # attempts to use FU when none available (Count)
system.cpu.statFuBusy::SimdFloatSqrt                0      0.00%      5.15% # attempts to use FU when none available (Count)
system.cpu.statFuBusy::SimdReduceAdd                0      0.00%      5.15% # attempts to use FU when none available (Count)
system.cpu.statFuBusy::SimdReduceAlu                0      0.00%      5.15% # attempts to use FU when none available (Count)
system.cpu.statFuBusy::SimdReduceCmp                0      0.00%      5.15% # attempts to use FU when none available (Count)
system.cpu.statFuBusy::SimdFloatReduceAdd            0      0.00%      5.15% # attempts to use FU when none available (Count)
system.cpu.statFuBusy::SimdFloatReduceCmp            0      0.00%      5.15% # attempts to use FU when none available (Count)
system.cpu.statFuBusy::SimdAes                      0      0.00%      5.15% # attempts to use FU when none available (Count)
system.cpu.statFuBusy::SimdAesMix                   0      0.00%      5.15% # attempts to use FU when none available (Count)
system.cpu.statFuBusy::SimdSha1Hash                 0      0.00%      5.15% # attempts to use FU when none available (Count)
system.cpu.statFuBusy::SimdSha1Hash2                0      0.00%      5.15% # attempts to use FU when none available (Count)
system.cpu.statFuBusy::SimdSha256Hash               0      0.00%      5.15% # attempts to use FU when none available (Count)
system.cpu.statFuBusy::SimdSha256Hash2              0      0.00%      5.15% # attempts to use FU when none available (Count)
system.cpu.statFuBusy::SimdShaSigma2                0      0.00%      5.15% # attempts to use FU when none available (Count)
system.cpu.statFuBusy::SimdShaSigma3                0      0.00%      5.15% # attempts to use FU when none available (Count)
system.cpu.statFuBusy::SimdPredAlu                  0      0.00%      5.15% # attempts to use FU when none available (Count)
system.cpu.statFuBusy::MemRead               38557711     77.33%     82.48% # attempts to use FU when none available (Count)
system.cpu.statFuBusy::MemWrite               8736302     17.52%    100.00% # attempts to use FU when none available (Count)
system.cpu.statFuBusy::FloatMemRead                 0      0.00%    100.00% # attempts to use FU when none available (Count)
system.cpu.statFuBusy::FloatMemWrite                0      0.00%    100.00% # attempts to use FU when none available (Count)
system.cpu.statFuBusy::IprAccess                    0      0.00%    100.00% # attempts to use FU when none available (Count)
system.cpu.statFuBusy::InstPrefetch                 0      0.00%    100.00% # attempts to use FU when none available (Count)
system.cpu.statIssuedInstType_0::No_OpClass            2      0.00%      0.00% # Number of instructions issued per FU type, per thread (Count)
system.cpu.statIssuedInstType_0::IntAlu     729241787     50.47%     50.47% # Number of instructions issued per FU type, per thread (Count)
system.cpu.statIssuedInstType_0::IntMult          866      0.00%     50.47% # Number of instructions issued per FU type, per thread (Count)
system.cpu.statIssuedInstType_0::IntDiv             0      0.00%     50.47% # Number of instructions issued per FU type, per thread (Count)
system.cpu.statIssuedInstType_0::FloatAdd            0      0.00%     50.47% # Number of instructions issued per FU type, per thread (Count)
system.cpu.statIssuedInstType_0::FloatCmp            0      0.00%     50.47% # Number of instructions issued per FU type, per thread (Count)
system.cpu.statIssuedInstType_0::FloatCvt            0      0.00%     50.47% # Number of instructions issued per FU type, per thread (Count)
system.cpu.statIssuedInstType_0::FloatMult            0      0.00%     50.47% # Number of instructions issued per FU type, per thread (Count)
system.cpu.statIssuedInstType_0::FloatMultAcc            0      0.00%     50.47% # Number of instructions issued per FU type, per thread (Count)
system.cpu.statIssuedInstType_0::FloatDiv            0      0.00%     50.47% # Number of instructions issued per FU type, per thread (Count)
system.cpu.statIssuedInstType_0::FloatMisc            0      0.00%     50.47% # Number of instructions issued per FU type, per thread (Count)
system.cpu.statIssuedInstType_0::FloatSqrt            0      0.00%     50.47% # Number of instructions issued per FU type, per thread (Count)
system.cpu.statIssuedInstType_0::SimdAdd            0      0.00%     50.47% # Number of instructions issued per FU type, per thread (Count)
system.cpu.statIssuedInstType_0::SimdAddAcc            0      0.00%     50.47% # Number of instructions issued per FU type, per thread (Count)
system.cpu.statIssuedInstType_0::SimdAlu            0      0.00%     50.47% # Number of instructions issued per FU type, per thread (Count)
system.cpu.statIssuedInstType_0::SimdCmp            0      0.00%     50.47% # Number of instructions issued per FU type, per thread (Count)
system.cpu.statIssuedInstType_0::SimdCvt            0      0.00%     50.47% # Number of instructions issued per FU type, per thread (Count)
system.cpu.statIssuedInstType_0::SimdMisc            0      0.00%     50.47% # Number of instructions issued per FU type, per thread (Count)
system.cpu.statIssuedInstType_0::SimdMult            0      0.00%     50.47% # Number of instructions issued per FU type, per thread (Count)
system.cpu.statIssuedInstType_0::SimdMultAcc            0      0.00%     50.47% # Number of instructions issued per FU type, per thread (Count)
system.cpu.statIssuedInstType_0::SimdShift            0      0.00%     50.47% # Number of instructions issued per FU type, per thread (Count)
system.cpu.statIssuedInstType_0::SimdShiftAcc            0      0.00%     50.47% # Number of instructions issued per FU type, per thread (Count)
system.cpu.statIssuedInstType_0::SimdDiv            0      0.00%     50.47% # Number of instructions issued per FU type, per thread (Count)
system.cpu.statIssuedInstType_0::SimdSqrt            0      0.00%     50.47% # Number of instructions issued per FU type, per thread (Count)
system.cpu.statIssuedInstType_0::SimdFloatAdd            0      0.00%     50.47% # Number of instructions issued per FU type, per thread (Count)
system.cpu.statIssuedInstType_0::SimdFloatAlu            0      0.00%     50.47% # Number of instructions issued per FU type, per thread (Count)
system.cpu.statIssuedInstType_0::SimdFloatCmp            0      0.00%     50.47% # Number of instructions issued per FU type, per thread (Count)
system.cpu.statIssuedInstType_0::SimdFloatCvt           38      0.00%     50.47% # Number of instructions issued per FU type, per thread (Count)
system.cpu.statIssuedInstType_0::SimdFloatDiv            6      0.00%     50.47% # Number of instructions issued per FU type, per thread (Count)
system.cpu.statIssuedInstType_0::SimdFloatMisc           23      0.00%     50.47% # Number of instructions issued per FU type, per thread (Count)
system.cpu.statIssuedInstType_0::SimdFloatMult           10      0.00%     50.47% # Number of instructions issued per FU type, per thread (Count)
system.cpu.statIssuedInstType_0::SimdFloatMultAcc            0      0.00%     50.47% # Number of instructions issued per FU type, per thread (Count)
system.cpu.statIssuedInstType_0::SimdFloatSqrt            0      0.00%     50.47% # Number of instructions issued per FU type, per thread (Count)
system.cpu.statIssuedInstType_0::SimdReduceAdd            0      0.00%     50.47% # Number of instructions issued per FU type, per thread (Count)
system.cpu.statIssuedInstType_0::SimdReduceAlu            0      0.00%     50.47% # Number of instructions issued per FU type, per thread (Count)
system.cpu.statIssuedInstType_0::SimdReduceCmp            0      0.00%     50.47% # Number of instructions issued per FU type, per thread (Count)
system.cpu.statIssuedInstType_0::SimdFloatReduceAdd            0      0.00%     50.47% # Number of instructions issued per FU type, per thread (Count)
system.cpu.statIssuedInstType_0::SimdFloatReduceCmp            0      0.00%     50.47% # Number of instructions issued per FU type, per thread (Count)
system.cpu.statIssuedInstType_0::SimdAes            0      0.00%     50.47% # Number of instructions issued per FU type, per thread (Count)
system.cpu.statIssuedInstType_0::SimdAesMix            0      0.00%     50.47% # Number of instructions issued per FU type, per thread (Count)
system.cpu.statIssuedInstType_0::SimdSha1Hash            0      0.00%     50.47% # Number of instructions issued per FU type, per thread (Count)
system.cpu.statIssuedInstType_0::SimdSha1Hash2            0      0.00%     50.47% # Number of instructions issued per FU type, per thread (Count)
system.cpu.statIssuedInstType_0::SimdSha256Hash            0      0.00%     50.47% # Number of instructions issued per FU type, per thread (Count)
system.cpu.statIssuedInstType_0::SimdSha256Hash2            0      0.00%     50.47% # Number of instructions issued per FU type, per thread (Count)
system.cpu.statIssuedInstType_0::SimdShaSigma2            0      0.00%     50.47% # Number of instructions issued per FU type, per thread (Count)
system.cpu.statIssuedInstType_0::SimdShaSigma3            0      0.00%     50.47% # Number of instructions issued per FU type, per thread (Count)
system.cpu.statIssuedInstType_0::SimdPredAlu            0      0.00%     50.47% # Number of instructions issued per FU type, per thread (Count)
system.cpu.statIssuedInstType_0::MemRead    480137258     33.23%     83.70% # Number of instructions issued per FU type, per thread (Count)
system.cpu.statIssuedInstType_0::MemWrite    235527994     16.30%    100.00% # Number of instructions issued per FU type, per thread (Count)
system.cpu.statIssuedInstType_0::FloatMemRead            0      0.00%    100.00% # Number of instructions issued per FU type, per thread (Count)
system.cpu.statIssuedInstType_0::FloatMemWrite            0      0.00%    100.00% # Number of instructions issued per FU type, per thread (Count)
system.cpu.statIssuedInstType_0::IprAccess            0      0.00%    100.00% # Number of instructions issued per FU type, per thread (Count)
system.cpu.statIssuedInstType_0::InstPrefetch            0      0.00%    100.00% # Number of instructions issued per FU type, per thread (Count)
system.cpu.statIssuedInstType_0::total     1444907984                       # Number of instructions issued per FU type, per thread (Count)
system.cpu.issueRate                         1.832860                       # Inst issue rate ((Count/Cycle))
system.cpu.fuBusy                            49864155                       # FU busy when requested (Count)
system.cpu.fuBusyRate                        0.034510                       # FU busy rate (busy events/executed inst) ((Count/Count))
system.cpu.intInstQueueReads               3729329660                       # Number of integer instruction queue reads (Count)
system.cpu.intInstQueueWrites              2085153748                       # Number of integer instruction queue writes (Count)
system.cpu.intInstQueueWakeupAccesses      1368625684                       # Number of integer instruction queue wakeup accesses (Count)
system.cpu.fpInstQueueReads                         0                       # Number of floating instruction queue reads (Count)
system.cpu.fpInstQueueWrites                        0                       # Number of floating instruction queue writes (Count)
system.cpu.fpInstQueueWakeupAccesses                0                       # Number of floating instruction queue wakeup accesses (Count)
system.cpu.vecInstQueueReads                        0                       # Number of vector instruction queue reads (Count)
system.cpu.vecInstQueueWrites                       0                       # Number of vector instruction queue writes (Count)
system.cpu.vecInstQueueWakeupAccesses               0                       # Number of vector instruction queue wakeup accesses (Count)
system.cpu.intAluAccesses                  1494772137                       # Number of integer alu accesses (Count)
system.cpu.fpAluAccesses                            0                       # Number of floating point alu accesses (Count)
system.cpu.vecAluAccesses                           0                       # Number of vector alu accesses (Count)
system.cpu.numInsts                        1426738911                       # Number of executed instructions (Count)
system.cpu.numLoadInsts                     471602342                       # Number of load instructions executed (Count)
system.cpu.numSquashedInsts                  18169067                       # Number of squashed instructions skipped in execute (Count)
system.cpu.numSwp                                   0                       # Number of swp insts executed (Count)
system.cpu.numNop                                 299                       # Number of nop insts executed (Count)
system.cpu.numRefs                          704098328                       # Number of memory reference insts executed (Count)
system.cpu.numBranches                      179248564                       # Number of branches executed (Count)
system.cpu.numStoreInsts                    232495986                       # Number of stores executed (Count)
system.cpu.numRate                           1.809813                       # Inst execution rate ((Count/Cycle))
system.cpu.timesIdled                             450                       # Number of times that the entire CPU went into an idle state and unscheduled itself (Count)
system.cpu.idleCycles                           15104                       # Total number of cycles that the CPU has spent unscheduled due to idling (Cycle)
system.cpu.committedInsts                  1000000000                       # Number of Instructions Simulated (Count)
system.cpu.committedOps                    1160112256                       # Number of Ops (including micro ops) Simulated (Count)
system.cpu.cpi                               0.788335                       # CPI: Cycles Per Instruction ((Cycle/Count))
system.cpu.totalCpi                          0.788335                       # CPI: Total CPI of All Threads ((Cycle/Count))
system.cpu.ipc                               1.268496                       # IPC: Instructions Per Cycle ((Count/Cycle))
system.cpu.totalIpc                          1.268496                       # IPC: Total IPC of All Threads ((Count/Cycle))
system.cpu.intRegfileReads                 1804274165                       # Number of integer regfile reads (Count)
system.cpu.intRegfileWrites                 867387439                       # Number of integer regfile writes (Count)
system.cpu.vecRegfileReads                        186                       # number of vector regfile reads (Count)
system.cpu.vecRegfileWrites                       737                       # number of vector regfile writes (Count)
system.cpu.ccRegfileReads                  5544414293                       # number of cc regfile reads (Count)
system.cpu.ccRegfileWrites                  735341957                       # number of cc regfile writes (Count)
system.cpu.miscRegfileReads                 649319288                       # number of misc regfile reads (Count)
system.cpu.miscRegfileWrites                      158                       # number of misc regfile writes (Count)
system.cpu.MemDepUnit__0.insertedLoads      501214209                       # Number of loads inserted to the mem dependence unit. (Count)
system.cpu.MemDepUnit__0.insertedStores     276040348                       # Number of stores inserted to the mem dependence unit. (Count)
system.cpu.MemDepUnit__0.conflictingLoads    154180665                       # Number of conflicting loads. (Count)
system.cpu.MemDepUnit__0.conflictingStores    108579045                       # Number of conflicting stores. (Count)
system.cpu.MemDepUnit__1.insertedLoads              0                       # Number of loads inserted to the mem dependence unit. (Count)
system.cpu.MemDepUnit__1.insertedStores             0                       # Number of stores inserted to the mem dependence unit. (Count)
system.cpu.MemDepUnit__1.conflictingLoads            0                       # Number of conflicting loads. (Count)
system.cpu.MemDepUnit__1.conflictingStores            0                       # Number of conflicting stores. (Count)
system.cpu.MemDepUnit__2.insertedLoads              0                       # Number of loads inserted to the mem dependence unit. (Count)
system.cpu.MemDepUnit__2.insertedStores             0                       # Number of stores inserted to the mem dependence unit. (Count)
system.cpu.MemDepUnit__2.conflictingLoads            0                       # Number of conflicting loads. (Count)
system.cpu.MemDepUnit__2.conflictingStores            0                       # Number of conflicting stores. (Count)
system.cpu.MemDepUnit__3.insertedLoads              0                       # Number of loads inserted to the mem dependence unit. (Count)
system.cpu.MemDepUnit__3.insertedStores             0                       # Number of stores inserted to the mem dependence unit. (Count)
system.cpu.MemDepUnit__3.conflictingLoads            0                       # Number of conflicting loads. (Count)
system.cpu.MemDepUnit__3.conflictingStores            0                       # Number of conflicting stores. (Count)
system.cpu.branchPred.lookups               252144915                       # Number of BP lookups (Count)
system.cpu.branchPred.condPredicted         208646783                       # Number of conditional branches predicted (Count)
system.cpu.branchPred.condIncorrect          10993266                       # Number of conditional branches incorrect (Count)
system.cpu.branchPred.BTBLookups            140335992                       # Number of BTB lookups (Count)
system.cpu.branchPred.BTBHits               140228359                       # Number of BTB hits (Count)
system.cpu.branchPred.BTBHitRatio            0.999233                       # BTB Hit Ratio (Ratio)
system.cpu.branchPred.RASUsed                 9444000                       # Number of times the RAS was used to get a target. (Count)
system.cpu.branchPred.RASIncorrect                  8                       # Number of incorrect RAS predictions. (Count)
system.cpu.branchPred.indirectLookups            2412                       # Number of indirect predictor lookups. (Count)
system.cpu.branchPred.indirectHits               2074                       # Number of indirect target hits. (Count)
system.cpu.branchPred.indirectMisses              338                       # Number of indirect misses. (Count)
system.cpu.branchPred.indirectMispredicted           96                       # Number of mispredicted indirect branches. (Count)
system.cpu.commit.commitSquashedInsts       461853166                       # The number of squashed insts skipped by commit (Count)
system.cpu.commit.commitNonSpecStalls             539                       # The number of times commit has been forced to stall to communicate backwards (Count)
system.cpu.commit.branchMispredicts          10232101                       # The number of times a branch was mispredicted (Count)
system.cpu.commit.numCommittedDist::samples    724901498                       # Number of insts commited each cycle (Count)
system.cpu.commit.numCommittedDist::mean     1.600373                       # Number of insts commited each cycle (Count)
system.cpu.commit.numCommittedDist::stdev     2.465779                       # Number of insts commited each cycle (Count)
system.cpu.commit.numCommittedDist::underflows            0      0.00%      0.00% # Number of insts commited each cycle (Count)
system.cpu.commit.numCommittedDist::0       388314475     53.57%     53.57% # Number of insts commited each cycle (Count)
system.cpu.commit.numCommittedDist::1       118126873     16.30%     69.86% # Number of insts commited each cycle (Count)
system.cpu.commit.numCommittedDist::2        51673204      7.13%     76.99% # Number of insts commited each cycle (Count)
system.cpu.commit.numCommittedDist::3        34260410      4.73%     81.72% # Number of insts commited each cycle (Count)
system.cpu.commit.numCommittedDist::4        31840834      4.39%     86.11% # Number of insts commited each cycle (Count)
system.cpu.commit.numCommittedDist::5        16791603      2.32%     88.43% # Number of insts commited each cycle (Count)
system.cpu.commit.numCommittedDist::6        15838099      2.18%     90.61% # Number of insts commited each cycle (Count)
system.cpu.commit.numCommittedDist::7        14940007      2.06%     92.67% # Number of insts commited each cycle (Count)
system.cpu.commit.numCommittedDist::8        53115993      7.33%    100.00% # Number of insts commited each cycle (Count)
system.cpu.commit.numCommittedDist::overflows            0      0.00%    100.00% # Number of insts commited each cycle (Count)
system.cpu.commit.numCommittedDist::min_value            0                       # Number of insts commited each cycle (Count)
system.cpu.commit.numCommittedDist::max_value            8                       # Number of insts commited each cycle (Count)
system.cpu.commit.numCommittedDist::total    724901498                       # Number of insts commited each cycle (Count)
system.cpu.commit.instsCommitted           1000000193                       # Number of instructions committed (Count)
system.cpu.commit.opsCommitted             1160112449                       # Number of ops (including micro ops) committed (Count)
system.cpu.commit.memRefs                   581891603                       # Number of memory references committed (Count)
system.cpu.commit.loads                     366711315                       # Number of loads committed (Count)
system.cpu.commit.amos                              0                       # Number of atomic instructions committed (Count)
system.cpu.commit.membars                          79                       # Number of memory barriers committed (Count)
system.cpu.commit.branches                  142882388                       # Number of branches committed (Count)
system.cpu.commit.vectorInstructions                0                       # Number of committed Vector instructions. (Count)
system.cpu.commit.floating                          0                       # Number of committed floating point instructions. (Count)
system.cpu.commit.integer                  1016066420                       # Number of committed integer instructions. (Count)
system.cpu.commit.functionCalls               4825530                       # Number of function calls committed. (Count)
system.cpu.commit.committedInstType_0::No_OpClass            0      0.00%      0.00% # Class of committed instruction (Count)
system.cpu.commit.committedInstType_0::IntAlu    578220034     49.84%     49.84% # Class of committed instruction (Count)
system.cpu.commit.committedInstType_0::IntMult          809      0.00%     49.84% # Class of committed instruction (Count)
system.cpu.commit.committedInstType_0::IntDiv            0      0.00%     49.84% # Class of committed instruction (Count)
system.cpu.commit.committedInstType_0::FloatAdd            0      0.00%     49.84% # Class of committed instruction (Count)
system.cpu.commit.committedInstType_0::FloatCmp            0      0.00%     49.84% # Class of committed instruction (Count)
system.cpu.commit.committedInstType_0::FloatCvt            0      0.00%     49.84% # Class of committed instruction (Count)
system.cpu.commit.committedInstType_0::FloatMult            0      0.00%     49.84% # Class of committed instruction (Count)
system.cpu.commit.committedInstType_0::FloatMultAcc            0      0.00%     49.84% # Class of committed instruction (Count)
system.cpu.commit.committedInstType_0::FloatDiv            0      0.00%     49.84% # Class of committed instruction (Count)
system.cpu.commit.committedInstType_0::FloatMisc            0      0.00%     49.84% # Class of committed instruction (Count)
system.cpu.commit.committedInstType_0::FloatSqrt            0      0.00%     49.84% # Class of committed instruction (Count)
system.cpu.commit.committedInstType_0::SimdAdd            0      0.00%     49.84% # Class of committed instruction (Count)
system.cpu.commit.committedInstType_0::SimdAddAcc            0      0.00%     49.84% # Class of committed instruction (Count)
system.cpu.commit.committedInstType_0::SimdAlu            0      0.00%     49.84% # Class of committed instruction (Count)
system.cpu.commit.committedInstType_0::SimdCmp            0      0.00%     49.84% # Class of committed instruction (Count)
system.cpu.commit.committedInstType_0::SimdCvt            0      0.00%     49.84% # Class of committed instruction (Count)
system.cpu.commit.committedInstType_0::SimdMisc            0      0.00%     49.84% # Class of committed instruction (Count)
system.cpu.commit.committedInstType_0::SimdMult            0      0.00%     49.84% # Class of committed instruction (Count)
system.cpu.commit.committedInstType_0::SimdMultAcc            0      0.00%     49.84% # Class of committed instruction (Count)
system.cpu.commit.committedInstType_0::SimdShift            0      0.00%     49.84% # Class of committed instruction (Count)
system.cpu.commit.committedInstType_0::SimdShiftAcc            0      0.00%     49.84% # Class of committed instruction (Count)
system.cpu.commit.committedInstType_0::SimdDiv            0      0.00%     49.84% # Class of committed instruction (Count)
system.cpu.commit.committedInstType_0::SimdSqrt            0      0.00%     49.84% # Class of committed instruction (Count)
system.cpu.commit.committedInstType_0::SimdFloatAdd            0      0.00%     49.84% # Class of committed instruction (Count)
system.cpu.commit.committedInstType_0::SimdFloatAlu            0      0.00%     49.84% # Class of committed instruction (Count)
system.cpu.commit.committedInstType_0::SimdFloatCmp            0      0.00%     49.84% # Class of committed instruction (Count)
system.cpu.commit.committedInstType_0::SimdFloatCvt            0      0.00%     49.84% # Class of committed instruction (Count)
system.cpu.commit.committedInstType_0::SimdFloatDiv            0      0.00%     49.84% # Class of committed instruction (Count)
system.cpu.commit.committedInstType_0::SimdFloatMisc            3      0.00%     49.84% # Class of committed instruction (Count)
system.cpu.commit.committedInstType_0::SimdFloatMult            0      0.00%     49.84% # Class of committed instruction (Count)
system.cpu.commit.committedInstType_0::SimdFloatMultAcc            0      0.00%     49.84% # Class of committed instruction (Count)
system.cpu.commit.committedInstType_0::SimdFloatSqrt            0      0.00%     49.84% # Class of committed instruction (Count)
system.cpu.commit.committedInstType_0::SimdReduceAdd            0      0.00%     49.84% # Class of committed instruction (Count)
system.cpu.commit.committedInstType_0::SimdReduceAlu            0      0.00%     49.84% # Class of committed instruction (Count)
system.cpu.commit.committedInstType_0::SimdReduceCmp            0      0.00%     49.84% # Class of committed instruction (Count)
system.cpu.commit.committedInstType_0::SimdFloatReduceAdd            0      0.00%     49.84% # Class of committed instruction (Count)
system.cpu.commit.committedInstType_0::SimdFloatReduceCmp            0      0.00%     49.84% # Class of committed instruction (Count)
system.cpu.commit.committedInstType_0::SimdAes            0      0.00%     49.84% # Class of committed instruction (Count)
system.cpu.commit.committedInstType_0::SimdAesMix            0      0.00%     49.84% # Class of committed instruction (Count)
system.cpu.commit.committedInstType_0::SimdSha1Hash            0      0.00%     49.84% # Class of committed instruction (Count)
system.cpu.commit.committedInstType_0::SimdSha1Hash2            0      0.00%     49.84% # Class of committed instruction (Count)
system.cpu.commit.committedInstType_0::SimdSha256Hash            0      0.00%     49.84% # Class of committed instruction (Count)
system.cpu.commit.committedInstType_0::SimdSha256Hash2            0      0.00%     49.84% # Class of committed instruction (Count)
system.cpu.commit.committedInstType_0::SimdShaSigma2            0      0.00%     49.84% # Class of committed instruction (Count)
system.cpu.commit.committedInstType_0::SimdShaSigma3            0      0.00%     49.84% # Class of committed instruction (Count)
system.cpu.commit.committedInstType_0::SimdPredAlu            0      0.00%     49.84% # Class of committed instruction (Count)
system.cpu.commit.committedInstType_0::MemRead    366711315     31.61%     81.45% # Class of committed instruction (Count)
system.cpu.commit.committedInstType_0::MemWrite    215180288     18.55%    100.00% # Class of committed instruction (Count)
system.cpu.commit.committedInstType_0::FloatMemRead            0      0.00%    100.00% # Class of committed instruction (Count)
system.cpu.commit.committedInstType_0::FloatMemWrite            0      0.00%    100.00% # Class of committed instruction (Count)
system.cpu.commit.committedInstType_0::IprAccess            0      0.00%    100.00% # Class of committed instruction (Count)
system.cpu.commit.committedInstType_0::InstPrefetch            0      0.00%    100.00% # Class of committed instruction (Count)
system.cpu.commit.committedInstType_0::total   1160112449                       # Class of committed instruction (Count)
system.cpu.commit.commitEligibleSamples      53115993                       # number cycles where commit BW limit reached (Cycle)
system.cpu.dcache.demandHits::cpu.data      513592008                       # number of demand (read+write) hits (Count)
system.cpu.dcache.demandHits::total         513592008                       # number of demand (read+write) hits (Count)
system.cpu.dcache.overallHits::cpu.data     513606840                       # number of overall hits (Count)
system.cpu.dcache.overallHits::total        513606840                       # number of overall hits (Count)
system.cpu.dcache.demandMisses::cpu.data     85005895                       # number of demand (read+write) misses (Count)
system.cpu.dcache.demandMisses::total        85005895                       # number of demand (read+write) misses (Count)
system.cpu.dcache.overallMisses::cpu.data     92662472                       # number of overall misses (Count)
system.cpu.dcache.overallMisses::total       92662472                       # number of overall misses (Count)
system.cpu.dcache.demandMissLatency::cpu.data 3945139947082                       # number of demand (read+write) miss ticks (Tick)
system.cpu.dcache.demandMissLatency::total 3945139947082                       # number of demand (read+write) miss ticks (Tick)
system.cpu.dcache.overallMissLatency::cpu.data 3945139947082                       # number of overall miss ticks (Tick)
system.cpu.dcache.overallMissLatency::total 3945139947082                       # number of overall miss ticks (Tick)
system.cpu.dcache.demandAccesses::cpu.data    598597903                       # number of demand (read+write) accesses (Count)
system.cpu.dcache.demandAccesses::total     598597903                       # number of demand (read+write) accesses (Count)
system.cpu.dcache.overallAccesses::cpu.data    606269312                       # number of overall (read+write) accesses (Count)
system.cpu.dcache.overallAccesses::total    606269312                       # number of overall (read+write) accesses (Count)
system.cpu.dcache.demandMissRate::cpu.data     0.142008                       # miss rate for demand accesses (Ratio)
system.cpu.dcache.demandMissRate::total      0.142008                       # miss rate for demand accesses (Ratio)
system.cpu.dcache.overallMissRate::cpu.data     0.152840                       # miss rate for overall accesses (Ratio)
system.cpu.dcache.overallMissRate::total     0.152840                       # miss rate for overall accesses (Ratio)
system.cpu.dcache.demandAvgMissLatency::cpu.data 46410.192459                       # average overall miss latency in ticks ((Tick/Count))
system.cpu.dcache.demandAvgMissLatency::total 46410.192459                       # average overall miss latency in ticks ((Tick/Count))
system.cpu.dcache.overallAvgMissLatency::cpu.data 42575.379891                       # average overall miss latency ((Tick/Count))
system.cpu.dcache.overallAvgMissLatency::total 42575.379891                       # average overall miss latency ((Tick/Count))
system.cpu.dcache.blockedCycles::no_mshrs    137982588                       # number of cycles access was blocked (Cycle)
system.cpu.dcache.blockedCycles::no_targets         6043                       # number of cycles access was blocked (Cycle)
system.cpu.dcache.blockedCauses::no_mshrs      4773875                       # number of times access was blocked (Count)
system.cpu.dcache.blockedCauses::no_targets          143                       # number of times access was blocked (Count)
system.cpu.dcache.avgBlocked::no_mshrs      28.903687                       # average number of cycles each access was blocked ((Cycle/Count))
system.cpu.dcache.avgBlocked::no_targets    42.258741                       # average number of cycles each access was blocked ((Cycle/Count))
system.cpu.dcache.writebacks::writebacks     10697040                       # number of writebacks (Count)
system.cpu.dcache.writebacks::total          10697040                       # number of writebacks (Count)
system.cpu.dcache.demandMshrHits::cpu.data     66434342                       # number of demand (read+write) MSHR hits (Count)
system.cpu.dcache.demandMshrHits::total      66434342                       # number of demand (read+write) MSHR hits (Count)
system.cpu.dcache.overallMshrHits::cpu.data     66434342                       # number of overall MSHR hits (Count)
system.cpu.dcache.overallMshrHits::total     66434342                       # number of overall MSHR hits (Count)
system.cpu.dcache.demandMshrMisses::cpu.data     18571553                       # number of demand (read+write) MSHR misses (Count)
system.cpu.dcache.demandMshrMisses::total     18571553                       # number of demand (read+write) MSHR misses (Count)
system.cpu.dcache.overallMshrMisses::cpu.data     22400272                       # number of overall MSHR misses (Count)
system.cpu.dcache.overallMshrMisses::total     22400272                       # number of overall MSHR misses (Count)
system.cpu.dcache.demandMshrMissLatency::cpu.data 664872255285                       # number of demand (read+write) MSHR miss ticks (Tick)
system.cpu.dcache.demandMshrMissLatency::total 664872255285                       # number of demand (read+write) MSHR miss ticks (Tick)
system.cpu.dcache.overallMshrMissLatency::cpu.data 971031252768                       # number of overall MSHR miss ticks (Tick)
system.cpu.dcache.overallMshrMissLatency::total 971031252768                       # number of overall MSHR miss ticks (Tick)
system.cpu.dcache.demandMshrMissRate::cpu.data     0.031025                       # mshr miss ratio for demand accesses (Ratio)
system.cpu.dcache.demandMshrMissRate::total     0.031025                       # mshr miss ratio for demand accesses (Ratio)
system.cpu.dcache.overallMshrMissRate::cpu.data     0.036948                       # mshr miss ratio for overall accesses (Ratio)
system.cpu.dcache.overallMshrMissRate::total     0.036948                       # mshr miss ratio for overall accesses (Ratio)
system.cpu.dcache.demandAvgMshrMissLatency::cpu.data 35800.573882                       # average overall mshr miss latency ((Tick/Count))
system.cpu.dcache.demandAvgMshrMissLatency::total 35800.573882                       # average overall mshr miss latency ((Tick/Count))
system.cpu.dcache.overallAvgMshrMissLatency::cpu.data 43349.083117                       # average overall mshr miss latency ((Tick/Count))
system.cpu.dcache.overallAvgMshrMissLatency::total 43349.083117                       # average overall mshr miss latency ((Tick/Count))
system.cpu.dcache.replacements               22399762                       # number of replacements (Count)
system.cpu.dcache.LoadLockedReq.hits::cpu.data           37                       # number of LoadLockedReq hits (Count)
system.cpu.dcache.LoadLockedReq.hits::total           37                       # number of LoadLockedReq hits (Count)
system.cpu.dcache.LoadLockedReq.misses::cpu.data            2                       # number of LoadLockedReq misses (Count)
system.cpu.dcache.LoadLockedReq.misses::total            2                       # number of LoadLockedReq misses (Count)
system.cpu.dcache.LoadLockedReq.missLatency::cpu.data       138875                       # number of LoadLockedReq miss ticks (Tick)
system.cpu.dcache.LoadLockedReq.missLatency::total       138875                       # number of LoadLockedReq miss ticks (Tick)
system.cpu.dcache.LoadLockedReq.accesses::cpu.data           39                       # number of LoadLockedReq accesses(hits+misses) (Count)
system.cpu.dcache.LoadLockedReq.accesses::total           39                       # number of LoadLockedReq accesses(hits+misses) (Count)
system.cpu.dcache.LoadLockedReq.missRate::cpu.data     0.051282                       # miss rate for LoadLockedReq accesses (Ratio)
system.cpu.dcache.LoadLockedReq.missRate::total     0.051282                       # miss rate for LoadLockedReq accesses (Ratio)
system.cpu.dcache.LoadLockedReq.avgMissLatency::cpu.data 69437.500000                       # average LoadLockedReq miss latency ((Tick/Count))
system.cpu.dcache.LoadLockedReq.avgMissLatency::total 69437.500000                       # average LoadLockedReq miss latency ((Tick/Count))
system.cpu.dcache.LoadLockedReq.mshrMisses::cpu.data            2                       # number of LoadLockedReq MSHR misses (Count)
system.cpu.dcache.LoadLockedReq.mshrMisses::total            2                       # number of LoadLockedReq MSHR misses (Count)
system.cpu.dcache.LoadLockedReq.mshrMissLatency::cpu.data       133134                       # number of LoadLockedReq MSHR miss ticks (Tick)
system.cpu.dcache.LoadLockedReq.mshrMissLatency::total       133134                       # number of LoadLockedReq MSHR miss ticks (Tick)
system.cpu.dcache.LoadLockedReq.mshrMissRate::cpu.data     0.051282                       # mshr miss rate for LoadLockedReq accesses (Ratio)
system.cpu.dcache.LoadLockedReq.mshrMissRate::total     0.051282                       # mshr miss rate for LoadLockedReq accesses (Ratio)
system.cpu.dcache.LoadLockedReq.avgMshrMissLatency::cpu.data        66567                       # average LoadLockedReq mshr miss latency ((Tick/Count))
system.cpu.dcache.LoadLockedReq.avgMshrMissLatency::total        66567                       # average LoadLockedReq mshr miss latency ((Tick/Count))
system.cpu.dcache.ReadReq.hits::cpu.data    365859858                       # number of ReadReq hits (Count)
system.cpu.dcache.ReadReq.hits::total       365859858                       # number of ReadReq hits (Count)
system.cpu.dcache.ReadReq.misses::cpu.data     19487754                       # number of ReadReq misses (Count)
system.cpu.dcache.ReadReq.misses::total      19487754                       # number of ReadReq misses (Count)
system.cpu.dcache.ReadReq.missLatency::cpu.data 451934684537                       # number of ReadReq miss ticks (Tick)
system.cpu.dcache.ReadReq.missLatency::total 451934684537                       # number of ReadReq miss ticks (Tick)
system.cpu.dcache.ReadReq.accesses::cpu.data    385347612                       # number of ReadReq accesses(hits+misses) (Count)
system.cpu.dcache.ReadReq.accesses::total    385347612                       # number of ReadReq accesses(hits+misses) (Count)
system.cpu.dcache.ReadReq.missRate::cpu.data     0.050572                       # miss rate for ReadReq accesses (Ratio)
system.cpu.dcache.ReadReq.missRate::total     0.050572                       # miss rate for ReadReq accesses (Ratio)
system.cpu.dcache.ReadReq.avgMissLatency::cpu.data 23190.701429                       # average ReadReq miss latency ((Tick/Count))
system.cpu.dcache.ReadReq.avgMissLatency::total 23190.701429                       # average ReadReq miss latency ((Tick/Count))
system.cpu.dcache.ReadReq.mshrHits::cpu.data      8476520                       # number of ReadReq MSHR hits (Count)
system.cpu.dcache.ReadReq.mshrHits::total      8476520                       # number of ReadReq MSHR hits (Count)
system.cpu.dcache.ReadReq.mshrMisses::cpu.data     11011234                       # number of ReadReq MSHR misses (Count)
system.cpu.dcache.ReadReq.mshrMisses::total     11011234                       # number of ReadReq MSHR misses (Count)
system.cpu.dcache.ReadReq.mshrMissLatency::cpu.data 196659351136                       # number of ReadReq MSHR miss ticks (Tick)
system.cpu.dcache.ReadReq.mshrMissLatency::total 196659351136                       # number of ReadReq MSHR miss ticks (Tick)
system.cpu.dcache.ReadReq.mshrMissRate::cpu.data     0.028575                       # mshr miss rate for ReadReq accesses (Ratio)
system.cpu.dcache.ReadReq.mshrMissRate::total     0.028575                       # mshr miss rate for ReadReq accesses (Ratio)
system.cpu.dcache.ReadReq.avgMshrMissLatency::cpu.data 17859.883019                       # average ReadReq mshr miss latency ((Tick/Count))
system.cpu.dcache.ReadReq.avgMshrMissLatency::total 17859.883019                       # average ReadReq mshr miss latency ((Tick/Count))
system.cpu.dcache.SoftPFReq.hits::cpu.data        14832                       # number of SoftPFReq hits (Count)
system.cpu.dcache.SoftPFReq.hits::total         14832                       # number of SoftPFReq hits (Count)
system.cpu.dcache.SoftPFReq.misses::cpu.data      7656577                       # number of SoftPFReq misses (Count)
system.cpu.dcache.SoftPFReq.misses::total      7656577                       # number of SoftPFReq misses (Count)
system.cpu.dcache.SoftPFReq.accesses::cpu.data      7671409                       # number of SoftPFReq accesses(hits+misses) (Count)
system.cpu.dcache.SoftPFReq.accesses::total      7671409                       # number of SoftPFReq accesses(hits+misses) (Count)
system.cpu.dcache.SoftPFReq.missRate::cpu.data     0.998067                       # miss rate for SoftPFReq accesses (Ratio)
system.cpu.dcache.SoftPFReq.missRate::total     0.998067                       # miss rate for SoftPFReq accesses (Ratio)
system.cpu.dcache.SoftPFReq.mshrMisses::cpu.data      3828719                       # number of SoftPFReq MSHR misses (Count)
system.cpu.dcache.SoftPFReq.mshrMisses::total      3828719                       # number of SoftPFReq MSHR misses (Count)
system.cpu.dcache.SoftPFReq.mshrMissLatency::cpu.data 306158997483                       # number of SoftPFReq MSHR miss ticks (Tick)
system.cpu.dcache.SoftPFReq.mshrMissLatency::total 306158997483                       # number of SoftPFReq MSHR miss ticks (Tick)
system.cpu.dcache.SoftPFReq.mshrMissRate::cpu.data     0.499089                       # mshr miss rate for SoftPFReq accesses (Ratio)
system.cpu.dcache.SoftPFReq.mshrMissRate::total     0.499089                       # mshr miss rate for SoftPFReq accesses (Ratio)
system.cpu.dcache.SoftPFReq.avgMshrMissLatency::cpu.data 79963.820140                       # average SoftPFReq mshr miss latency ((Tick/Count))
system.cpu.dcache.SoftPFReq.avgMshrMissLatency::total 79963.820140                       # average SoftPFReq mshr miss latency ((Tick/Count))
system.cpu.dcache.StoreCondReq.hits::cpu.data           39                       # number of StoreCondReq hits (Count)
system.cpu.dcache.StoreCondReq.hits::total           39                       # number of StoreCondReq hits (Count)
system.cpu.dcache.StoreCondReq.accesses::cpu.data           39                       # number of StoreCondReq accesses(hits+misses) (Count)
system.cpu.dcache.StoreCondReq.accesses::total           39                       # number of StoreCondReq accesses(hits+misses) (Count)
system.cpu.dcache.WriteReq.hits::cpu.data    147732150                       # number of WriteReq hits (Count)
system.cpu.dcache.WriteReq.hits::total      147732150                       # number of WriteReq hits (Count)
system.cpu.dcache.WriteReq.misses::cpu.data     65518141                       # number of WriteReq misses (Count)
system.cpu.dcache.WriteReq.misses::total     65518141                       # number of WriteReq misses (Count)
system.cpu.dcache.WriteReq.missLatency::cpu.data 3493205262545                       # number of WriteReq miss ticks (Tick)
system.cpu.dcache.WriteReq.missLatency::total 3493205262545                       # number of WriteReq miss ticks (Tick)
system.cpu.dcache.WriteReq.accesses::cpu.data    213250291                       # number of WriteReq accesses(hits+misses) (Count)
system.cpu.dcache.WriteReq.accesses::total    213250291                       # number of WriteReq accesses(hits+misses) (Count)
system.cpu.dcache.WriteReq.missRate::cpu.data     0.307236                       # miss rate for WriteReq accesses (Ratio)
system.cpu.dcache.WriteReq.missRate::total     0.307236                       # miss rate for WriteReq accesses (Ratio)
system.cpu.dcache.WriteReq.avgMissLatency::cpu.data 53316.611388                       # average WriteReq miss latency ((Tick/Count))
system.cpu.dcache.WriteReq.avgMissLatency::total 53316.611388                       # average WriteReq miss latency ((Tick/Count))
system.cpu.dcache.WriteReq.mshrHits::cpu.data     57957822                       # number of WriteReq MSHR hits (Count)
system.cpu.dcache.WriteReq.mshrHits::total     57957822                       # number of WriteReq MSHR hits (Count)
system.cpu.dcache.WriteReq.mshrMisses::cpu.data      7560319                       # number of WriteReq MSHR misses (Count)
system.cpu.dcache.WriteReq.mshrMisses::total      7560319                       # number of WriteReq MSHR misses (Count)
system.cpu.dcache.WriteReq.mshrMissLatency::cpu.data 468212904149                       # number of WriteReq MSHR miss ticks (Tick)
system.cpu.dcache.WriteReq.mshrMissLatency::total 468212904149                       # number of WriteReq MSHR miss ticks (Tick)
system.cpu.dcache.WriteReq.mshrMissRate::cpu.data     0.035453                       # mshr miss rate for WriteReq accesses (Ratio)
system.cpu.dcache.WriteReq.mshrMissRate::total     0.035453                       # mshr miss rate for WriteReq accesses (Ratio)
system.cpu.dcache.WriteReq.avgMshrMissLatency::cpu.data 61930.310632                       # average WriteReq mshr miss latency ((Tick/Count))
system.cpu.dcache.WriteReq.avgMshrMissLatency::total 61930.310632                       # average WriteReq mshr miss latency ((Tick/Count))
system.cpu.dcache.power_state.pwrStateResidencyTicks::UNDEFINED 875840271658                       # Cumulative time (in ticks) in various power states (Tick)
system.cpu.dcache.tags.tagsInUse           499.085829                       # Average ticks per tags in use ((Tick/Count))
system.cpu.dcache.tags.totalRefs            536007190                       # Total number of references to valid blocks. (Count)
system.cpu.dcache.tags.sampledRefs           22400274                       # Sample count of references to valid blocks. (Count)
system.cpu.dcache.tags.avgRefs              23.928600                       # Average number of references to valid blocks. ((Count/Count))
system.cpu.dcache.tags.warmupTick              154500                       # The tick when the warmup percentage was hit. (Tick)
system.cpu.dcache.tags.occupancies::cpu.data   499.085829                       # Average occupied blocks per tick, per requestor ((Count/Tick))
system.cpu.dcache.tags.avgOccs::cpu.data     0.974777                       # Average percentage of cache occupancy ((Ratio/Tick))
system.cpu.dcache.tags.avgOccs::total        0.974777                       # Average percentage of cache occupancy ((Ratio/Tick))
system.cpu.dcache.tags.occupanciesTaskId::1024          512                       # Occupied blocks per task id (Count)
system.cpu.dcache.tags.ageTaskId_1024::0          110                       # Occupied blocks per task id, per block age (Count)
system.cpu.dcache.tags.ageTaskId_1024::1          341                       # Occupied blocks per task id, per block age (Count)
system.cpu.dcache.tags.ageTaskId_1024::2           61                       # Occupied blocks per task id, per block age (Count)
system.cpu.dcache.tags.ratioOccsTaskId::1024            1                       # Ratio of occupied blocks and all blocks, per task id (Ratio)
system.cpu.dcache.tags.tagAccesses         2447477834                       # Number of tag accesses (Count)
system.cpu.dcache.tags.dataAccesses        2447477834                       # Number of data accesses (Count)
system.cpu.dcache.tags.power_state.pwrStateResidencyTicks::UNDEFINED 875840271658                       # Cumulative time (in ticks) in various power states (Tick)
system.cpu.decode.idleCycles                126974101                       # Number of cycles decode is idle (Cycle)
system.cpu.decode.blockedCycles             376615311                       # Number of cycles decode is blocked (Cycle)
system.cpu.decode.runCycles                 220897949                       # Number of cycles decode is running (Cycle)
system.cpu.decode.unblockCycles              53165311                       # Number of cycles decode is unblocking (Cycle)
system.cpu.decode.squashCycles               10667303                       # Number of cycles decode is squashing (Cycle)
system.cpu.decode.branchResolved            129761273                       # Number of times decode resolved a branch (Count)
system.cpu.decode.branchMispred                781122                       # Number of times decode detected a branch misprediction (Count)
system.cpu.decode.decodedInsts             1743144341                       # Number of instructions handled by decode (Count)
system.cpu.decode.squashedInsts               2661710                       # Number of squashed instructions handled by decode (Count)
system.cpu.fetch.icacheStallCycles          170916294                       # Number of cycles fetch is stalled on an Icache miss (Cycle)
system.cpu.fetch.insts                     1630151920                       # Number of instructions fetch has processed (Count)
system.cpu.fetch.branches                   252144915                       # Number of branches that fetch encountered (Count)
system.cpu.fetch.predictedBranches          149674433                       # Number of branches that fetch has predicted taken (Count)
system.cpu.fetch.cycles                     605975181                       # Number of cycles fetch has run and was not squashing or blocked (Cycle)
system.cpu.fetch.squashCycles                22856938                       # Number of cycles fetch has spent squashing (Cycle)
system.cpu.fetch.miscStallCycles                    2                       # Number of cycles fetch has spent waiting on interrupts, or bad addresses, or out of MSHRs (Cycle)
system.cpu.fetch.pendingTrapStallCycles            12                       # Number of stall cycles due to pending traps (Cycle)
system.cpu.fetch.icacheWaitRetryStallCycles           17                       # Number of stall cycles due to full MSHR (Cycle)
system.cpu.fetch.cacheLines                 165064667                       # Number of cache lines fetched (Count)
system.cpu.fetch.icacheSquashes               3280649                       # Number of outstanding Icache misses that were squashed (Count)
system.cpu.fetch.nisnDist::samples          788319975                       # Number of instructions fetched each cycle (Total) (Count)
system.cpu.fetch.nisnDist::mean              2.351250                       # Number of instructions fetched each cycle (Total) (Count)
system.cpu.fetch.nisnDist::stdev             3.148066                       # Number of instructions fetched each cycle (Total) (Count)
system.cpu.fetch.nisnDist::underflows               0      0.00%      0.00% # Number of instructions fetched each cycle (Total) (Count)
system.cpu.fetch.nisnDist::0                452024584     57.34%     57.34% # Number of instructions fetched each cycle (Total) (Count)
system.cpu.fetch.nisnDist::1                 21911297      2.78%     60.12% # Number of instructions fetched each cycle (Total) (Count)
system.cpu.fetch.nisnDist::2                 36485774      4.63%     64.75% # Number of instructions fetched each cycle (Total) (Count)
system.cpu.fetch.nisnDist::3                 21470006      2.72%     67.47% # Number of instructions fetched each cycle (Total) (Count)
system.cpu.fetch.nisnDist::4                 39940632      5.07%     72.54% # Number of instructions fetched each cycle (Total) (Count)
system.cpu.fetch.nisnDist::5                 36007764      4.57%     77.11% # Number of instructions fetched each cycle (Total) (Count)
system.cpu.fetch.nisnDist::6                 30264908      3.84%     80.94% # Number of instructions fetched each cycle (Total) (Count)
system.cpu.fetch.nisnDist::7                 28866017      3.66%     84.61% # Number of instructions fetched each cycle (Total) (Count)
system.cpu.fetch.nisnDist::8                121348993     15.39%    100.00% # Number of instructions fetched each cycle (Total) (Count)
system.cpu.fetch.nisnDist::overflows                0      0.00%    100.00% # Number of instructions fetched each cycle (Total) (Count)
system.cpu.fetch.nisnDist::min_value                0                       # Number of instructions fetched each cycle (Total) (Count)
system.cpu.fetch.nisnDist::max_value                8                       # Number of instructions fetched each cycle (Total) (Count)
system.cpu.fetch.nisnDist::total            788319975                       # Number of instructions fetched each cycle (Total) (Count)
system.cpu.fetch.branchRate                  0.319845                       # Number of branch fetches per cycle (Ratio)
system.cpu.fetch.rate                        2.067841                       # Number of inst fetches per cycle ((Count/Cycle))
system.cpu.icache.demandHits::cpu.inst      165063523                       # number of demand (read+write) hits (Count)
system.cpu.icache.demandHits::total         165063523                       # number of demand (read+write) hits (Count)
system.cpu.icache.overallHits::cpu.inst     165063523                       # number of overall hits (Count)
system.cpu.icache.overallHits::total        165063523                       # number of overall hits (Count)
system.cpu.icache.demandMisses::cpu.inst         1144                       # number of demand (read+write) misses (Count)
system.cpu.icache.demandMisses::total            1144                       # number of demand (read+write) misses (Count)
system.cpu.icache.overallMisses::cpu.inst         1144                       # number of overall misses (Count)
system.cpu.icache.overallMisses::total           1144                       # number of overall misses (Count)
system.cpu.icache.demandMissLatency::cpu.inst     76052394                       # number of demand (read+write) miss ticks (Tick)
system.cpu.icache.demandMissLatency::total     76052394                       # number of demand (read+write) miss ticks (Tick)
system.cpu.icache.overallMissLatency::cpu.inst     76052394                       # number of overall miss ticks (Tick)
system.cpu.icache.overallMissLatency::total     76052394                       # number of overall miss ticks (Tick)
system.cpu.icache.demandAccesses::cpu.inst    165064667                       # number of demand (read+write) accesses (Count)
system.cpu.icache.demandAccesses::total     165064667                       # number of demand (read+write) accesses (Count)
system.cpu.icache.overallAccesses::cpu.inst    165064667                       # number of overall (read+write) accesses (Count)
system.cpu.icache.overallAccesses::total    165064667                       # number of overall (read+write) accesses (Count)
system.cpu.icache.demandMissRate::cpu.inst     0.000007                       # miss rate for demand accesses (Ratio)
system.cpu.icache.demandMissRate::total      0.000007                       # miss rate for demand accesses (Ratio)
system.cpu.icache.overallMissRate::cpu.inst     0.000007                       # miss rate for overall accesses (Ratio)
system.cpu.icache.overallMissRate::total     0.000007                       # miss rate for overall accesses (Ratio)
system.cpu.icache.demandAvgMissLatency::cpu.inst 66479.365385                       # average overall miss latency in ticks ((Tick/Count))
system.cpu.icache.demandAvgMissLatency::total 66479.365385                       # average overall miss latency in ticks ((Tick/Count))
system.cpu.icache.overallAvgMissLatency::cpu.inst 66479.365385                       # average overall miss latency ((Tick/Count))
system.cpu.icache.overallAvgMissLatency::total 66479.365385                       # average overall miss latency ((Tick/Count))
system.cpu.icache.blockedCycles::no_mshrs          109                       # number of cycles access was blocked (Cycle)
system.cpu.icache.blockedCycles::no_targets            0                       # number of cycles access was blocked (Cycle)
system.cpu.icache.blockedCauses::no_mshrs            4                       # number of times access was blocked (Count)
system.cpu.icache.blockedCauses::no_targets            0                       # number of times access was blocked (Count)
system.cpu.icache.avgBlocked::no_mshrs      27.250000                       # average number of cycles each access was blocked ((Cycle/Count))
system.cpu.icache.avgBlocked::no_targets          nan                       # average number of cycles each access was blocked ((Cycle/Count))
system.cpu.icache.demandMshrHits::cpu.inst          398                       # number of demand (read+write) MSHR hits (Count)
system.cpu.icache.demandMshrHits::total           398                       # number of demand (read+write) MSHR hits (Count)
system.cpu.icache.overallMshrHits::cpu.inst          398                       # number of overall MSHR hits (Count)
system.cpu.icache.overallMshrHits::total          398                       # number of overall MSHR hits (Count)
system.cpu.icache.demandMshrMisses::cpu.inst          746                       # number of demand (read+write) MSHR misses (Count)
system.cpu.icache.demandMshrMisses::total          746                       # number of demand (read+write) MSHR misses (Count)
system.cpu.icache.overallMshrMisses::cpu.inst          746                       # number of overall MSHR misses (Count)
system.cpu.icache.overallMshrMisses::total          746                       # number of overall MSHR misses (Count)
system.cpu.icache.demandMshrMissLatency::cpu.inst     55577438                       # number of demand (read+write) MSHR miss ticks (Tick)
system.cpu.icache.demandMshrMissLatency::total     55577438                       # number of demand (read+write) MSHR miss ticks (Tick)
system.cpu.icache.overallMshrMissLatency::cpu.inst     55577438                       # number of overall MSHR miss ticks (Tick)
system.cpu.icache.overallMshrMissLatency::total     55577438                       # number of overall MSHR miss ticks (Tick)
system.cpu.icache.demandMshrMissRate::cpu.inst     0.000005                       # mshr miss ratio for demand accesses (Ratio)
system.cpu.icache.demandMshrMissRate::total     0.000005                       # mshr miss ratio for demand accesses (Ratio)
system.cpu.icache.overallMshrMissRate::cpu.inst     0.000005                       # mshr miss ratio for overall accesses (Ratio)
system.cpu.icache.overallMshrMissRate::total     0.000005                       # mshr miss ratio for overall accesses (Ratio)
system.cpu.icache.demandAvgMshrMissLatency::cpu.inst 74500.587131                       # average overall mshr miss latency ((Tick/Count))
system.cpu.icache.demandAvgMshrMissLatency::total 74500.587131                       # average overall mshr miss latency ((Tick/Count))
system.cpu.icache.overallAvgMshrMissLatency::cpu.inst 74500.587131                       # average overall mshr miss latency ((Tick/Count))
system.cpu.icache.overallAvgMshrMissLatency::total 74500.587131                       # average overall mshr miss latency ((Tick/Count))
system.cpu.icache.replacements                    267                       # number of replacements (Count)
system.cpu.icache.ReadReq.hits::cpu.inst    165063523                       # number of ReadReq hits (Count)
system.cpu.icache.ReadReq.hits::total       165063523                       # number of ReadReq hits (Count)
system.cpu.icache.ReadReq.misses::cpu.inst         1144                       # number of ReadReq misses (Count)
system.cpu.icache.ReadReq.misses::total          1144                       # number of ReadReq misses (Count)
system.cpu.icache.ReadReq.missLatency::cpu.inst     76052394                       # number of ReadReq miss ticks (Tick)
system.cpu.icache.ReadReq.missLatency::total     76052394                       # number of ReadReq miss ticks (Tick)
system.cpu.icache.ReadReq.accesses::cpu.inst    165064667                       # number of ReadReq accesses(hits+misses) (Count)
system.cpu.icache.ReadReq.accesses::total    165064667                       # number of ReadReq accesses(hits+misses) (Count)
system.cpu.icache.ReadReq.missRate::cpu.inst     0.000007                       # miss rate for ReadReq accesses (Ratio)
system.cpu.icache.ReadReq.missRate::total     0.000007                       # miss rate for ReadReq accesses (Ratio)
system.cpu.icache.ReadReq.avgMissLatency::cpu.inst 66479.365385                       # average ReadReq miss latency ((Tick/Count))
system.cpu.icache.ReadReq.avgMissLatency::total 66479.365385                       # average ReadReq miss latency ((Tick/Count))
system.cpu.icache.ReadReq.mshrHits::cpu.inst          398                       # number of ReadReq MSHR hits (Count)
system.cpu.icache.ReadReq.mshrHits::total          398                       # number of ReadReq MSHR hits (Count)
system.cpu.icache.ReadReq.mshrMisses::cpu.inst          746                       # number of ReadReq MSHR misses (Count)
system.cpu.icache.ReadReq.mshrMisses::total          746                       # number of ReadReq MSHR misses (Count)
system.cpu.icache.ReadReq.mshrMissLatency::cpu.inst     55577438                       # number of ReadReq MSHR miss ticks (Tick)
system.cpu.icache.ReadReq.mshrMissLatency::total     55577438                       # number of ReadReq MSHR miss ticks (Tick)
system.cpu.icache.ReadReq.mshrMissRate::cpu.inst     0.000005                       # mshr miss rate for ReadReq accesses (Ratio)
system.cpu.icache.ReadReq.mshrMissRate::total     0.000005                       # mshr miss rate for ReadReq accesses (Ratio)
system.cpu.icache.ReadReq.avgMshrMissLatency::cpu.inst 74500.587131                       # average ReadReq mshr miss latency ((Tick/Count))
system.cpu.icache.ReadReq.avgMshrMissLatency::total 74500.587131                       # average ReadReq mshr miss latency ((Tick/Count))
system.cpu.icache.power_state.pwrStateResidencyTicks::UNDEFINED 875840271658                       # Cumulative time (in ticks) in various power states (Tick)
system.cpu.icache.tags.tagsInUse           413.723945                       # Average ticks per tags in use ((Tick/Count))
system.cpu.icache.tags.totalRefs            165064269                       # Total number of references to valid blocks. (Count)
system.cpu.icache.tags.sampledRefs                746                       # Sample count of references to valid blocks. (Count)
system.cpu.icache.tags.avgRefs           221265.776139                       # Average number of references to valid blocks. ((Count/Count))
system.cpu.icache.tags.warmupTick               82000                       # The tick when the warmup percentage was hit. (Tick)
system.cpu.icache.tags.occupancies::cpu.inst   413.723945                       # Average occupied blocks per tick, per requestor ((Count/Tick))
system.cpu.icache.tags.avgOccs::cpu.inst     0.808055                       # Average percentage of cache occupancy ((Ratio/Tick))
system.cpu.icache.tags.avgOccs::total        0.808055                       # Average percentage of cache occupancy ((Ratio/Tick))
system.cpu.icache.tags.occupanciesTaskId::1024          479                       # Occupied blocks per task id (Count)
system.cpu.icache.tags.ageTaskId_1024::4          479                       # Occupied blocks per task id, per block age (Count)
system.cpu.icache.tags.ratioOccsTaskId::1024     0.935547                       # Ratio of occupied blocks and all blocks, per task id (Ratio)
system.cpu.icache.tags.tagAccesses          660259414                       # Number of tag accesses (Count)
system.cpu.icache.tags.dataAccesses         660259414                       # Number of data accesses (Count)
system.cpu.icache.tags.power_state.pwrStateResidencyTicks::UNDEFINED 875840271658                       # Cumulative time (in ticks) in various power states (Tick)
system.cpu.iew.idleCycles                           0                       # Number of cycles IEW is idle (Cycle)
system.cpu.iew.squashCycles                  10667303                       # Number of cycles IEW is squashing (Cycle)
system.cpu.iew.blockCycles                   60175580                       # Number of cycles IEW is blocking (Cycle)
system.cpu.iew.unblockCycles                 33061350                       # Number of cycles IEW is unblocking (Cycle)
system.cpu.iew.dispatchedInsts             1622482498                       # Number of instructions dispatched to IQ (Count)
system.cpu.iew.dispSquashedInsts              1873470                       # Number of squashed instructions skipped by dispatch (Count)
system.cpu.iew.dispLoadInsts                501214209                       # Number of dispatched load instructions (Count)
system.cpu.iew.dispStoreInsts               276040348                       # Number of dispatched store instructions (Count)
system.cpu.iew.dispNonSpecInsts                  3504                       # Number of dispatched non-speculative instructions (Count)
system.cpu.iew.iqFullEvents                    677294                       # Number of times the IQ has become full, causing a stall (Count)
system.cpu.iew.lsqFullEvents                 31724643                       # Number of times the LSQ has become full, causing a stall (Count)
system.cpu.iew.memOrderViolationEvents         307864                       # Number of memory order violations (Count)
system.cpu.iew.predictedTakenIncorrect        5833915                       # Number of branches that were predicted taken incorrectly (Count)
system.cpu.iew.predictedNotTakenIncorrect      6804059                       # Number of branches that were predicted not taken incorrectly (Count)
system.cpu.iew.branchMispredicts             12637974                       # Number of branch mispredicts detected at execute (Count)
system.cpu.iew.instsToCommit               1384498669                       # Cumulative count of insts sent to commit (Count)
system.cpu.iew.writebackCount              1368625684                       # Cumulative count of insts written-back (Count)
system.cpu.iew.producerInst                 789880694                       # Number of instructions producing a value (Count)
system.cpu.iew.consumerInst                1221275010                       # Number of instructions consuming a value (Count)
system.cpu.iew.wbRate                        1.736096                       # Insts written-back per cycle ((Count/Cycle))
system.cpu.iew.wbFanout                      0.646767                       # Average fanout of values written-back ((Count/Count))
system.cpu.lsq0.forwLoads                    46852667                       # Number of loads that had data forwarded from stores (Count)
system.cpu.lsq0.squashedLoads               134502864                       # Number of loads squashed (Count)
system.cpu.lsq0.ignoredResponses               136501                       # Number of memory responses ignored because the instruction is squashed (Count)
system.cpu.lsq0.memOrderViolation              307864                       # Number of memory ordering violations (Count)
system.cpu.lsq0.squashedStores               60860046                       # Number of stores squashed (Count)
system.cpu.lsq0.rescheduledLoads              7867727                       # Number of loads that were rescheduled (Count)
system.cpu.lsq0.blockedByCache                4423925                       # Number of times an access to memory failed due to the cache being blocked (Count)
system.cpu.lsq0.loadToUse::samples          359040299                       # Distribution of cycle latency between the first time a load is issued and its completion (Unspecified)
system.cpu.lsq0.loadToUse::mean              5.079384                       # Distribution of cycle latency between the first time a load is issued and its completion (Unspecified)
system.cpu.lsq0.loadToUse::stdev            15.153880                       # Distribution of cycle latency between the first time a load is issued and its completion (Unspecified)
system.cpu.lsq0.loadToUse::0-9              338556996     94.29%     94.29% # Distribution of cycle latency between the first time a load is issued and its completion (Unspecified)
system.cpu.lsq0.loadToUse::10-19             13254688      3.69%     97.99% # Distribution of cycle latency between the first time a load is issued and its completion (Unspecified)
system.cpu.lsq0.loadToUse::20-29               922762      0.26%     98.24% # Distribution of cycle latency between the first time a load is issued and its completion (Unspecified)
system.cpu.lsq0.loadToUse::30-39               548542      0.15%     98.40% # Distribution of cycle latency between the first time a load is issued and its completion (Unspecified)
system.cpu.lsq0.loadToUse::40-49              1845640      0.51%     98.91% # Distribution of cycle latency between the first time a load is issued and its completion (Unspecified)
system.cpu.lsq0.loadToUse::50-59              1829960      0.51%     99.42% # Distribution of cycle latency between the first time a load is issued and its completion (Unspecified)
[...]
system.mem_ctrl.dram.perBankRdBursts::7        298657                       # Per bank write bursts (Count)
system.mem_ctrl.dram.perBankRdBursts::8        298397                       # Per bank write bursts (Count)
system.mem_ctrl.dram.perBankRdBursts::9        297237                       # Per bank write bursts (Count)
system.mem_ctrl.dram.perBankRdBursts::10       296938                       # Per bank write bursts (Count)
system.mem_ctrl.dram.perBankRdBursts::11       297262                       # Per bank write bursts (Count)
system.mem_ctrl.dram.perBankRdBursts::12       296042                       # Per bank write bursts (Count)
system.mem_ctrl.dram.perBankRdBursts::13       296944                       # Per bank write bursts (Count)
system.mem_ctrl.dram.perBankRdBursts::14       296209                       # Per bank write bursts (Count)
system.mem_ctrl.dram.perBankRdBursts::15       298084                       # Per bank write bursts (Count)
system.mem_ctrl.dram.perBankRdBursts::16       297448                       # Per bank write bursts (Count)
system.mem_ctrl.dram.perBankRdBursts::17       294885                       # Per bank write bursts (Count)
system.mem_ctrl.dram.perBankRdBursts::18       296935                       # Per bank write bursts (Count)
system.mem_ctrl.dram.perBankRdBursts::19       298881                       # Per bank write bursts (Count)
system.mem_ctrl.dram.perBankRdBursts::20       296118                       # Per bank write bursts (Count)
system.mem_ctrl.dram.perBankRdBursts::21       295926                       # Per bank write bursts (Count)
system.mem_ctrl.dram.perBankRdBursts::22       296180                       # Per bank write bursts (Count)
system.mem_ctrl.dram.perBankRdBursts::23       296282                       # Per bank write bursts (Count)
system.mem_ctrl.dram.perBankRdBursts::24       296971                       # Per bank write bursts (Count)
system.mem_ctrl.dram.perBankRdBursts::25       296099                       # Per bank write bursts (Count)
system.mem_ctrl.dram.perBankRdBursts::26       296415                       # Per bank write bursts (Count)
system.mem_ctrl.dram.perBankRdBursts::27       294119                       # Per bank write bursts (Count)
system.mem_ctrl.dram.perBankRdBursts::28       300219                       # Per bank write bursts (Count)
system.mem_ctrl.dram.perBankRdBursts::29       301618                       # Per bank write bursts (Count)
system.mem_ctrl.dram.perBankRdBursts::30       300277                       # Per bank write bursts (Count)
system.mem_ctrl.dram.perBankRdBursts::31       298699                       # Per bank write bursts (Count)
system.mem_ctrl.dram.perBankWrBursts::0        163079                       # Per bank write bursts (Count)
system.mem_ctrl.dram.perBankWrBursts::1        164678                       # Per bank write bursts (Count)
system.mem_ctrl.dram.perBankWrBursts::2        163779                       # Per bank write bursts (Count)
system.mem_ctrl.dram.perBankWrBursts::3        163815                       # Per bank write bursts (Count)
system.mem_ctrl.dram.perBankWrBursts::4        164305                       # Per bank write bursts (Count)
system.mem_ctrl.dram.perBankWrBursts::5        163882                       # Per bank write bursts (Count)
system.mem_ctrl.dram.perBankWrBursts::6        164811                       # Per bank write bursts (Count)
system.mem_ctrl.dram.perBankWrBursts::7        163841                       # Per bank write bursts (Count)
system.mem_ctrl.dram.perBankWrBursts::8        163698                       # Per bank write bursts (Count)
system.mem_ctrl.dram.perBankWrBursts::9        162757                       # Per bank write bursts (Count)
system.mem_ctrl.dram.perBankWrBursts::10       162704                       # Per bank write bursts (Count)
system.mem_ctrl.dram.perBankWrBursts::11       162465                       # Per bank write bursts (Count)
system.mem_ctrl.dram.perBankWrBursts::12       162479                       # Per bank write bursts (Count)
system.mem_ctrl.dram.perBankWrBursts::13       163151                       # Per bank write bursts (Count)
system.mem_ctrl.dram.perBankWrBursts::14       162811                       # Per bank write bursts (Count)
system.mem_ctrl.dram.perBankWrBursts::15       163346                       # Per bank write bursts (Count)
system.mem_ctrl.dram.perBankWrBursts::16       163262                       # Per bank write bursts (Count)
system.mem_ctrl.dram.perBankWrBursts::17       161787                       # Per bank write bursts (Count)
system.mem_ctrl.dram.perBankWrBursts::18       163033                       # Per bank write bursts (Count)
system.mem_ctrl.dram.perBankWrBursts::19       163235                       # Per bank write bursts (Count)
system.mem_ctrl.dram.perBankWrBursts::20       162544                       # Per bank write bursts (Count)
system.mem_ctrl.dram.perBankWrBursts::21       161072                       # Per bank write bursts (Count)
system.mem_ctrl.dram.perBankWrBursts::22       161743                       # Per bank write bursts (Count)
system.mem_ctrl.dram.perBankWrBursts::23       160801                       # Per bank write bursts (Count)
system.mem_ctrl.dram.perBankWrBursts::24       162126                       # Per bank write bursts (Count)
system.mem_ctrl.dram.perBankWrBursts::25       161035                       # Per bank write bursts (Count)
system.mem_ctrl.dram.perBankWrBursts::26       161588                       # Per bank write bursts (Count)
system.mem_ctrl.dram.perBankWrBursts::27       159769                       # Per bank write bursts (Count)
system.mem_ctrl.dram.perBankWrBursts::28       164279                       # Per bank write bursts (Count)
system.mem_ctrl.dram.perBankWrBursts::29       164311                       # Per bank write bursts (Count)
system.mem_ctrl.dram.perBankWrBursts::30       164188                       # Per bank write bursts (Count)
system.mem_ctrl.dram.perBankWrBursts::31       163110                       # Per bank write bursts (Count)
system.mem_ctrl.dram.totQLat             154241558903                       # Total ticks spent queuing (Tick)
system.mem_ctrl.dram.totBusLat            31764235888                       # Total ticks spent in databus transfers (Tick)
system.mem_ctrl.dram.totMemAccLat        320994264231                       # Total ticks spent from burst creation until serviced by the DRAM (Tick)
system.mem_ctrl.dram.avgQLat                 16179.61                       # Average queueing delay per DRAM burst ((Tick/Count))
system.mem_ctrl.dram.avgBusLat                3332.00                       # Average bus latency per DRAM burst ((Tick/Count))
system.mem_ctrl.dram.avgMemAccLat            33671.61                       # Average memory access latency per DRAM burst ((Tick/Count))
system.mem_ctrl.dram.readRowHits              8502568                       # Number of row buffer hits during reads (Count)
system.mem_ctrl.dram.writeRowHits             4466636                       # Number of row buffer hits during writes (Count)
system.mem_ctrl.dram.readRowHitRate             89.19                       # Row buffer hit rate for reads (Ratio)
system.mem_ctrl.dram.writeRowHitRate            85.67                       # Row buffer hit rate for writes (Ratio)
system.mem_ctrl.dram.bytesPerActivate::samples      1777364                       # Bytes accessed per row activation (Byte)
system.mem_ctrl.dram.bytesPerActivate::mean   531.000038                       # Bytes accessed per row activation (Byte)
system.mem_ctrl.dram.bytesPerActivate::gmean   340.770292                       # Bytes accessed per row activation (Byte)
system.mem_ctrl.dram.bytesPerActivate::stdev   381.620326                       # Bytes accessed per row activation (Byte)
system.mem_ctrl.dram.bytesPerActivate::0-127       430319     24.21%     24.21% # Bytes accessed per row activation (Byte)
system.mem_ctrl.dram.bytesPerActivate::128-255       153058      8.61%     32.82% # Bytes accessed per row activation (Byte)
system.mem_ctrl.dram.bytesPerActivate::256-383        64340      3.62%     36.44% # Bytes accessed per row activation (Byte)
system.mem_ctrl.dram.bytesPerActivate::384-511        75486      4.25%     40.69% # Bytes accessed per row activation (Byte)
system.mem_ctrl.dram.bytesPerActivate::512-639       397541     22.37%     63.06% # Bytes accessed per row activation (Byte)
system.mem_ctrl.dram.bytesPerActivate::640-767        53881      3.03%     66.09% # Bytes accessed per row activation (Byte)
system.mem_ctrl.dram.bytesPerActivate::768-895        42735      2.40%     68.49% # Bytes accessed per row activation (Byte)
system.mem_ctrl.dram.bytesPerActivate::896-1023        36310      2.04%     70.54% # Bytes accessed per row activation (Byte)
system.mem_ctrl.dram.bytesPerActivate::1024-1151       523694     29.46%    100.00% # Bytes accessed per row activation (Byte)
system.mem_ctrl.dram.bytesPerActivate::total      1777364                       # Bytes accessed per row activation (Byte)
system.mem_ctrl.dram.bytesRead              610117376                       # Total bytes read (Byte)
system.mem_ctrl.dram.bytesWritten           333662976                       # Total bytes written (Byte)
system.mem_ctrl.dram.avgRdBW               696.608041                       # Average DRAM read bandwidth in MiBytes/s ((Byte/Second))
system.mem_ctrl.dram.avgWrBW               380.963272                       # Average DRAM write bandwidth in MiBytes/s ((Byte/Second))
system.mem_ctrl.dram.peakBW                  19207.00                       # Theoretical peak bandwidth in MiByte/s ((Byte/Second))
system.mem_ctrl.dram.busUtil                     5.61                       # Data bus utilization in percentage (Ratio)
system.mem_ctrl.dram.busUtilRead                 3.63                       # Data bus utilization in percentage for reads (Ratio)
system.mem_ctrl.dram.busUtilWrite                1.98                       # Data bus utilization in percentage for writes (Ratio)
system.mem_ctrl.dram.pageHitRate                87.95                       # Row buffer hit rate, read and write combined (Ratio)
system.mem_ctrl.dram.power_state.pwrStateResidencyTicks::UNDEFINED 875840271658                       # Cumulative time (in ticks) in various power states (Tick)
system.mem_ctrl.dram.rank0.actEnergy     2791108389.887715                       # Energy for activate commands per rank (pJ) (Joule)
system.mem_ctrl.dram.rank0.preEnergy     3710742820.913495                       # Energy for precharge commands per rank (pJ) (Joule)
system.mem_ctrl.dram.rank0.readEnergy    20089419512.597134                       # Energy for read commands per rank (pJ) (Joule)
system.mem_ctrl.dram.rank0.writeEnergy   9830725896.094936                       # Energy for write commands per rank (pJ) (Joule)
system.mem_ctrl.dram.rank0.refreshEnergy 155842514661.124207                       # Energy for refresh commands per rank (pJ) (Joule)
system.mem_ctrl.dram.rank0.actBackEnergy 318106010114.580200                       # Energy for active background per rank (pJ) (Joule)
system.mem_ctrl.dram.rank0.preBackEnergy 327328092433.533386                       # Energy for precharge background per rank (pJ) (Joule)
system.mem_ctrl.dram.rank0.actPowerDownEnergy            0                       # Energy for active power-down per rank (pJ) (Joule)
system.mem_ctrl.dram.rank0.prePowerDownEnergy            0                       # Energy for precharge power-down per rank (pJ) (Joule)
system.mem_ctrl.dram.rank0.selfRefreshEnergy            0                       # Energy for self refresh per rank (pJ) (Joule)
system.mem_ctrl.dram.rank0.totalEnergy   837698613829.477661                       # Total energy per rank (pJ) (Joule)
system.mem_ctrl.dram.rank0.averagePower    956.451354                       # Core power per rank (mW) (Watt)
system.mem_ctrl.dram.rank0.totalIdleTime            0                       # Total Idle time Per DRAM Rank (Tick)
system.mem_ctrl.dram.rank0.pwrStateTime::IDLE 498492179802                       # Time in different power states (Tick)
system.mem_ctrl.dram.rank0.pwrStateTime::REF  39371850000                       # Time in different power states (Tick)
system.mem_ctrl.dram.rank0.pwrStateTime::SREF            0                       # Time in different power states (Tick)
system.mem_ctrl.dram.rank0.pwrStateTime::PRE_PDN            0                       # Time in different power states (Tick)
system.mem_ctrl.dram.rank0.pwrStateTime::ACT 337976241856                       # Time in different power states (Tick)
system.mem_ctrl.dram.rank0.pwrStateTime::ACT_PDN            0                       # Time in different power states (Tick)
system.mem_ctrl.dram.rank1.actEnergy     2752049139.839755                       # Energy for activate commands per rank (pJ) (Joule)
system.mem_ctrl.dram.rank1.preEnergy     3658814048.734553                       # Energy for precharge commands per rank (pJ) (Joule)
system.mem_ctrl.dram.rank1.readEnergy    20009751872.405846                       # Energy for read commands per rank (pJ) (Joule)
system.mem_ctrl.dram.rank1.writeEnergy   9764132863.966793                       # Energy for write commands per rank (pJ) (Joule)
system.mem_ctrl.dram.rank1.refreshEnergy 155842514661.124207                       # Energy for refresh commands per rank (pJ) (Joule)
system.mem_ctrl.dram.rank1.actBackEnergy 308481360290.925903                       # Energy for active background per rank (pJ) (Joule)
system.mem_ctrl.dram.rank1.preBackEnergy 334723303597.340027                       # Energy for precharge background per rank (pJ) (Joule)
system.mem_ctrl.dram.rank1.actPowerDownEnergy            0                       # Energy for active power-down per rank (pJ) (Joule)
system.mem_ctrl.dram.rank1.prePowerDownEnergy            0                       # Energy for precharge power-down per rank (pJ) (Joule)
system.mem_ctrl.dram.rank1.selfRefreshEnergy            0                       # Energy for self refresh per rank (pJ) (Joule)
system.mem_ctrl.dram.rank1.totalEnergy   835231926475.254517                       # Total energy per rank (pJ) (Joule)
system.mem_ctrl.dram.rank1.averagePower    953.634987                       # Core power per rank (mW) (Watt)
system.mem_ctrl.dram.rank1.totalIdleTime            0                       # Total Idle time Per DRAM Rank (Tick)
system.mem_ctrl.dram.rank1.pwrStateTime::IDLE 509836981347                       # Time in different power states (Tick)
system.mem_ctrl.dram.rank1.pwrStateTime::REF  39371850000                       # Time in different power states (Tick)
system.mem_ctrl.dram.rank1.pwrStateTime::SREF            0                       # Time in different power states (Tick)
system.mem_ctrl.dram.rank1.pwrStateTime::PRE_PDN            0                       # Time in different power states (Tick)
system.mem_ctrl.dram.rank1.pwrStateTime::ACT 326631440311                       # Time in different power states (Tick)
system.mem_ctrl.dram.rank1.pwrStateTime::ACT_PDN            0                       # Time in different power states (Tick)
system.mem_ctrl.power_state.pwrStateResidencyTicks::UNDEFINED 875840271658                       # Cumulative time (in ticks) in various power states (Tick)
system.membus.transDist::ReadResp             4471785                       # Transaction distribution (Count)
system.membus.transDist::WritebackDirty       5213536                       # Transaction distribution (Count)
system.membus.transDist::CleanEvict           4288948                       # Transaction distribution (Count)
system.membus.transDist::ReadExReq            5064026                       # Transaction distribution (Count)
system.membus.transDist::ReadExResp           5064026                       # Transaction distribution (Count)
system.membus.transDist::ReadSharedReq        4471785                       # Transaction distribution (Count)
system.membus.pktCount_system.l2cache.mem_side_port::system.mem_ctrl.port     28574106                       # Packet count per connected requestor and responder (Count)
system.membus.pktCount::total                28574106                       # Packet count per connected requestor and responder (Count)
system.membus.pktSize_system.l2cache.mem_side_port::system.mem_ctrl.port    943958208                       # Cumulative packet size per connected requestor and responder (Byte)
system.membus.pktSize::total                943958208                       # Cumulative packet size per connected requestor and responder (Byte)
system.membus.snoops                                0                       # Total snoops (Count)
system.membus.snoopTraffic                          0                       # Total snoop traffic (Byte)
system.membus.snoopFanout::samples            9535811                       # Request fanout histogram (Count)
system.membus.snoopFanout::mean                     0                       # Request fanout histogram (Count)
system.membus.snoopFanout::stdev                    0                       # Request fanout histogram (Count)
system.membus.snoopFanout::underflows               0      0.00%      0.00% # Request fanout histogram (Count)
system.membus.snoopFanout::0                  9535811    100.00%    100.00% # Request fanout histogram (Count)
system.membus.snoopFanout::1                        0      0.00%    100.00% # Request fanout histogram (Count)
system.membus.snoopFanout::overflows                0      0.00%    100.00% # Request fanout histogram (Count)
system.membus.snoopFanout::min_value                0                       # Request fanout histogram (Count)
system.membus.snoopFanout::max_value                0                       # Request fanout histogram (Count)
system.membus.snoopFanout::total              9535811                       # Request fanout histogram (Count)
system.membus.power_state.pwrStateResidencyTicks::UNDEFINED 875840271658                       # Cumulative time (in ticks) in various power states (Tick)
system.membus.reqLayer0.occupancy         22142013688                       # Layer occupancy (ticks) (Tick)
system.membus.reqLayer0.utilization               0.0                       # Layer utilization (Ratio)
system.membus.respLayer0.occupancy        25089597982                       # Layer occupancy (ticks) (Tick)
system.membus.respLayer0.utilization              0.0                       # Layer utilization (Ratio)
system.membus.snoop_filter.totRequests       19038295                       # Total number of requests made to the snoop filter. (Count)
system.membus.snoop_filter.hitSingleRequests      9502567                       # Number of requests hitting in the snoop filter with a single holder of the requested data. (Count)
system.membus.snoop_filter.hitMultiRequests            0                       # Number of requests hitting in the snoop filter with multiple (>1) holders of the requested data. (Count)
system.membus.snoop_filter.totSnoops                0                       # Total number of snoops made to the snoop filter. (Count)
system.membus.snoop_filter.hitSingleSnoops            0                       # Number of snoops hitting in the snoop filter with a single holder of the requested data. (Count)
system.membus.snoop_filter.hitMultiSnoops            0                       # Number of snoops hitting in the snoop filter with multiple (>1) holders of the requested data. (Count)
system.workload.inst.arm                            0                       # number of arm instructions executed (Count)
system.workload.inst.quiesce                        0                       # number of quiesce instructions executed (Count)

---------- End Simulation Statistics   ----------
