
---------- Begin Simulation Statistics ----------
simSeconds                                   2.783975                       # Number of seconds simulated (Second)
simTicks                                 2783974822316                       # Number of ticks simulated (Tick)
finalTick                                2783974822316                       # Number of ticks from beginning of simulation (restored from checkpoints and never reset) (Tick)
simFreq                                  1000000000000                       # The number of ticks per simulated second ((Tick/Second))
hostSeconds                                   1384.48                       # Real time elapsed on the host (Second)
hostTickRate                               2010847405                       # The number of ticks simulated per host second (ticks/s) ((Tick/Second))
hostMemory                                    2294364                       # Number of bytes of host memory used (Byte)
simInsts                                   1000000000                       # Number of instructions simulated (Count)
simOps                                     1160869040                       # Number of ops (including micro ops) simulated (Count)
hostInstRate                                   722294                       # Simulator instruction rate (inst/s) ((Count/Second))
hostOpRate                                     838488                       # Simulator op (including micro ops) rate (op/s) ((Count/Second))
system.clk_domain.clock                           500                       # Clock period in ticks (Tick)
system.clk_domain.voltage_domain.voltage            1                       # Voltage in Volts (Volt)
system.cpu.numCycles                       5007148961                       # Number of cpu cycles simulated (Cycle)
system.cpu.numWorkItemsStarted                      0                       # Number of work items this cpu started (Count)
system.cpu.numWorkItemsCompleted                    0                       # Number of work items this cpu completed (Count)
system.cpu.dcache.demandHits::cpu.data      552778739                       # number of demand (read+write) hits (Count)
system.cpu.dcache.demandHits::total         552778739                       # number of demand (read+write) hits (Count)
system.cpu.dcache.overallHits::cpu.data     552792935                       # number of overall hits (Count)
system.cpu.dcache.overallHits::total        552792935                       # number of overall hits (Count)
system.cpu.dcache.demandMisses::cpu.data     18287875                       # number of demand (read+write) misses (Count)
system.cpu.dcache.demandMisses::total        18287875                       # number of demand (read+write) misses (Count)
system.cpu.dcache.overallMisses::cpu.data     25944695                       # number of overall misses (Count)
system.cpu.dcache.overallMisses::total       25944695                       # number of overall misses (Count)
system.cpu.dcache.demandMissLatency::cpu.data 826625646244                       # number of demand (read+write) miss ticks (Tick)
system.cpu.dcache.demandMissLatency::total 826625646244                       # number of demand (read+write) miss ticks (Tick)
system.cpu.dcache.overallMissLatency::cpu.data 826625646244                       # number of overall miss ticks (Tick)
system.cpu.dcache.overallMissLatency::total 826625646244                       # number of overall miss ticks (Tick)
system.cpu.dcache.demandAccesses::cpu.data    571066614                       # number of demand (read+write) accesses (Count)
system.cpu.dcache.demandAccesses::total     571066614                       # number of demand (read+write) accesses (Count)
system.cpu.dcache.overallAccesses::cpu.data    578737630                       # number of overall (read+write) accesses (Count)
system.cpu.dcache.overallAccesses::total    578737630                       # number of overall (read+write) accesses (Count)
system.cpu.dcache.demandMissRate::cpu.data     0.032024                       # miss rate for demand accesses (Ratio)
system.cpu.dcache.demandMissRate::total      0.032024                       # miss rate for demand accesses (Ratio)
system.cpu.dcache.overallMissRate::cpu.data     0.044830                       # miss rate for overall accesses (Ratio)
system.cpu.dcache.overallMissRate::total     0.044830                       # miss rate for overall accesses (Ratio)
system.cpu.dcache.demandAvgMissLatency::cpu.data 45200.748925                       # average overall miss latency in ticks ((Tick/Count))
system.cpu.dcache.demandAvgMissLatency::total 45200.748925                       # average overall miss latency in ticks ((Tick/Count))
system.cpu.dcache.overallAvgMissLatency::cpu.data 31861.066250                       # average overall miss latency ((Tick/Count))
system.cpu.dcache.overallAvgMissLatency::total 31861.066250                       # average overall miss latency ((Tick/Count))
system.cpu.dcache.blockedCycles::no_mshrs            0                       # number of cycles access was blocked (Cycle)
system.cpu.dcache.blockedCycles::no_targets            0                       # number of cycles access was blocked (Cycle)
system.cpu.dcache.blockedCauses::no_mshrs            0                       # number of times access was blocked (Count)
system.cpu.dcache.blockedCauses::no_targets            0                       # number of times access was blocked (Count)
system.cpu.dcache.avgBlocked::no_mshrs            nan                       # average number of cycles each access was blocked ((Cycle/Count))
system.cpu.dcache.avgBlocked::no_targets          nan                       # average number of cycles each access was blocked ((Cycle/Count))
system.cpu.dcache.writebacks::writebacks     10444250                       # number of writebacks (Count)
system.cpu.dcache.writebacks::total          10444250                       # number of writebacks (Count)
system.cpu.dcache.demandMshrHits::cpu.data       111328                       # number of demand (read+write) MSHR hits (Count)
system.cpu.dcache.demandMshrHits::total        111328                       # number of demand (read+write) MSHR hits (Count)
system.cpu.dcache.overallMshrHits::cpu.data       111328                       # number of overall MSHR hits (Count)
system.cpu.dcache.overallMshrHits::total       111328                       # number of overall MSHR hits (Count)
system.cpu.dcache.demandMshrMisses::cpu.data     18176547                       # number of demand (read+write) MSHR misses (Count)
system.cpu.dcache.demandMshrMisses::total     18176547                       # number of demand (read+write) MSHR misses (Count)
system.cpu.dcache.overallMshrMisses::cpu.data     22005189                       # number of overall MSHR misses (Count)
system.cpu.dcache.overallMshrMisses::total     22005189                       # number of overall MSHR misses (Count)
system.cpu.dcache.demandMshrMissLatency::cpu.data 798994149512                       # number of demand (read+write) MSHR miss ticks (Tick)
system.cpu.dcache.demandMshrMissLatency::total 798994149512                       # number of demand (read+write) MSHR miss ticks (Tick)
system.cpu.dcache.overallMshrMissLatency::cpu.data 1220459902156                       # number of overall MSHR miss ticks (Tick)
system.cpu.dcache.overallMshrMissLatency::total 1220459902156                       # number of overall MSHR miss ticks (Tick)
system.cpu.dcache.demandMshrMissRate::cpu.data     0.031829                       # mshr miss ratio for demand accesses (Ratio)
system.cpu.dcache.demandMshrMissRate::total     0.031829                       # mshr miss ratio for demand accesses (Ratio)
system.cpu.dcache.overallMshrMissRate::cpu.data     0.038023                       # mshr miss ratio for overall accesses (Ratio)
system.cpu.dcache.overallMshrMissRate::total     0.038023                       # mshr miss ratio for overall accesses (Ratio)
system.cpu.dcache.demandAvgMshrMissLatency::cpu.data 43957.422139                       # average overall mshr miss latency ((Tick/Count))
system.cpu.dcache.demandAvgMshrMissLatency::total 43957.422139                       # average overall mshr miss latency ((Tick/Count))
system.cpu.dcache.overallAvgMshrMissLatency::cpu.data 55462.368542                       # average overall mshr miss latency ((Tick/Count))
system.cpu.dcache.overallAvgMshrMissLatency::total 55462.368542                       # average overall mshr miss latency ((Tick/Count))
system.cpu.dcache.replacements               22004679                       # number of replacements (Count)
system.cpu.dcache.LoadLockedReq.hits::cpu.data           37                       # number of LoadLockedReq hits (Count)
system.cpu.dcache.LoadLockedReq.hits::total           37                       # number of LoadLockedReq hits (Count)
system.cpu.dcache.LoadLockedReq.misses::cpu.data            2                       # number of LoadLockedReq misses (Count)
system.cpu.dcache.LoadLockedReq.misses::total            2                       # number of LoadLockedReq misses (Count)
system.cpu.dcache.LoadLockedReq.missLatency::cpu.data       187928                       # number of LoadLockedReq miss ticks (Tick)
system.cpu.dcache.LoadLockedReq.missLatency::total       187928                       # number of LoadLockedReq miss ticks (Tick)
system.cpu.dcache.LoadLockedReq.accesses::cpu.data           39                       # number of LoadLockedReq accesses(hits+misses) (Count)
system.cpu.dcache.LoadLockedReq.accesses::total           39                       # number of LoadLockedReq accesses(hits+misses) (Count)
system.cpu.dcache.LoadLockedReq.missRate::cpu.data     0.051282                       # miss rate for LoadLockedReq accesses (Ratio)
system.cpu.dcache.LoadLockedReq.missRate::total     0.051282                       # miss rate for LoadLockedReq accesses (Ratio)
system.cpu.dcache.LoadLockedReq.avgMissLatency::cpu.data        93964                       # average LoadLockedReq miss latency ((Tick/Count))
system.cpu.dcache.LoadLockedReq.avgMissLatency::total        93964                       # average LoadLockedReq miss latency ((Tick/Count))
system.cpu.dcache.LoadLockedReq.mshrMisses::cpu.data            2                       # number of LoadLockedReq MSHR misses (Count)
system.cpu.dcache.LoadLockedReq.mshrMisses::total            2                       # number of LoadLockedReq MSHR misses (Count)
system.cpu.dcache.LoadLockedReq.mshrMissLatency::cpu.data       185540                       # number of LoadLockedReq MSHR miss ticks (Tick)
system.cpu.dcache.LoadLockedReq.mshrMissLatency::total       185540                       # number of LoadLockedReq MSHR miss ticks (Tick)
system.cpu.dcache.LoadLockedReq.mshrMissRate::cpu.data     0.051282                       # mshr miss rate for LoadLockedReq accesses (Ratio)
system.cpu.dcache.LoadLockedReq.mshrMissRate::total     0.051282                       # mshr miss rate for LoadLockedReq accesses (Ratio)
system.cpu.dcache.LoadLockedReq.avgMshrMissLatency::cpu.data        92770                       # average LoadLockedReq mshr miss latency ((Tick/Count))
system.cpu.dcache.LoadLockedReq.avgMshrMissLatency::total        92770                       # average LoadLockedReq mshr miss latency ((Tick/Count))
system.cpu.dcache.ReadReq.hits::cpu.data    346127663                       # number of ReadReq hits (Count)
system.cpu.dcache.ReadReq.hits::total       346127663                       # number of ReadReq hits (Count)
system.cpu.dcache.ReadReq.misses::cpu.data     10722678                       # number of ReadReq misses (Count)
system.cpu.dcache.ReadReq.misses::total      10722678                       # number of ReadReq misses (Count)
system.cpu.dcache.ReadReq.missLatency::cpu.data 208132286520                       # number of ReadReq miss ticks (Tick)
system.cpu.dcache.ReadReq.missLatency::total 208132286520                       # number of ReadReq miss ticks (Tick)
system.cpu.dcache.ReadReq.accesses::cpu.data    356850341                       # number of ReadReq accesses(hits+misses) (Count)
system.cpu.dcache.ReadReq.accesses::total    356850341                       # number of ReadReq accesses(hits+misses) (Count)
system.cpu.dcache.ReadReq.missRate::cpu.data     0.030048                       # miss rate for ReadReq accesses (Ratio)
system.cpu.dcache.ReadReq.missRate::total     0.030048                       # miss rate for ReadReq accesses (Ratio)
system.cpu.dcache.ReadReq.avgMissLatency::cpu.data 19410.476237                       # average ReadReq miss latency ((Tick/Count))
system.cpu.dcache.ReadReq.avgMissLatency::total 19410.476237                       # average ReadReq miss latency ((Tick/Count))
system.cpu.dcache.ReadReq.mshrHits::cpu.data       111328                       # number of ReadReq MSHR hits (Count)
system.cpu.dcache.ReadReq.mshrHits::total       111328                       # number of ReadReq MSHR hits (Count)
system.cpu.dcache.ReadReq.mshrMisses::cpu.data     10611350                       # number of ReadReq MSHR misses (Count)
system.cpu.dcache.ReadReq.mshrMisses::total     10611350                       # number of ReadReq MSHR misses (Count)
system.cpu.dcache.ReadReq.mshrMissLatency::cpu.data 191214655392                       # number of ReadReq MSHR miss ticks (Tick)
system.cpu.dcache.ReadReq.mshrMissLatency::total 191214655392                       # number of ReadReq MSHR miss ticks (Tick)
system.cpu.dcache.ReadReq.mshrMissRate::cpu.data     0.029736                       # mshr miss rate for ReadReq accesses (Ratio)
system.cpu.dcache.ReadReq.mshrMissRate::total     0.029736                       # mshr miss rate for ReadReq accesses (Ratio)
system.cpu.dcache.ReadReq.avgMshrMissLatency::cpu.data 18019.823622                       # average ReadReq mshr miss latency ((Tick/Count))
system.cpu.dcache.ReadReq.avgMshrMissLatency::total 18019.823622                       # average ReadReq mshr miss latency ((Tick/Count))
system.cpu.dcache.SoftPFReq.hits::cpu.data        14196                       # number of SoftPFReq hits (Count)
system.cpu.dcache.SoftPFReq.hits::total         14196                       # number of SoftPFReq hits (Count)
system.cpu.dcache.SoftPFReq.misses::cpu.data      7656820                       # number of SoftPFReq misses (Count)
system.cpu.dcache.SoftPFReq.misses::total      7656820                       # number of SoftPFReq misses (Count)
system.cpu.dcache.SoftPFReq.accesses::cpu.data      7671016                       # number of SoftPFReq accesses(hits+misses) (Count)
system.cpu.dcache.SoftPFReq.accesses::total      7671016                       # number of SoftPFReq accesses(hits+misses) (Count)
system.cpu.dcache.SoftPFReq.missRate::cpu.data     0.998149                       # miss rate for SoftPFReq accesses (Ratio)
system.cpu.dcache.SoftPFReq.missRate::total     0.998149                       # miss rate for SoftPFReq accesses (Ratio)
system.cpu.dcache.SoftPFReq.mshrMisses::cpu.data      3828642                       # number of SoftPFReq MSHR misses (Count)
system.cpu.dcache.SoftPFReq.mshrMisses::total      3828642                       # number of SoftPFReq MSHR misses (Count)
system.cpu.dcache.SoftPFReq.mshrMissLatency::cpu.data 421465752644                       # number of SoftPFReq MSHR miss ticks (Tick)
system.cpu.dcache.SoftPFReq.mshrMissLatency::total 421465752644                       # number of SoftPFReq MSHR miss ticks (Tick)
system.cpu.dcache.SoftPFReq.mshrMissRate::cpu.data     0.499105                       # mshr miss rate for SoftPFReq accesses (Ratio)
system.cpu.dcache.SoftPFReq.mshrMissRate::total     0.499105                       # mshr miss rate for SoftPFReq accesses (Ratio)
system.cpu.dcache.SoftPFReq.avgMshrMissLatency::cpu.data 110082.309248                       # average SoftPFReq mshr miss latency ((Tick/Count))
system.cpu.dcache.SoftPFReq.avgMshrMissLatency::total 110082.309248                       # average SoftPFReq mshr miss latency ((Tick/Count))
system.cpu.dcache.StoreCondReq.hits::cpu.data           39                       # number of StoreCondReq hits (Count)
system.cpu.dcache.StoreCondReq.hits::total           39                       # number of StoreCondReq hits (Count)
system.cpu.dcache.StoreCondReq.accesses::cpu.data           39                       # number of StoreCondReq accesses(hits+misses) (Count)
system.cpu.dcache.StoreCondReq.accesses::total           39                       # number of StoreCondReq accesses(hits+misses) (Count)
system.cpu.dcache.WriteReq.hits::cpu.data    206651076                       # number of WriteReq hits (Count)
system.cpu.dcache.WriteReq.hits::total      206651076                       # number of WriteReq hits (Count)
system.cpu.dcache.WriteReq.misses::cpu.data      7565197                       # number of WriteReq misses (Count)
system.cpu.dcache.WriteReq.misses::total      7565197                       # number of WriteReq misses (Count)
system.cpu.dcache.WriteReq.missLatency::cpu.data 618493359724                       # number of WriteReq miss ticks (Tick)
system.cpu.dcache.WriteReq.missLatency::total 618493359724                       # number of WriteReq miss ticks (Tick)
system.cpu.dcache.WriteReq.accesses::cpu.data    214216273                       # number of WriteReq accesses(hits+misses) (Count)
system.cpu.dcache.WriteReq.accesses::total    214216273                       # number of WriteReq accesses(hits+misses) (Count)
system.cpu.dcache.WriteReq.missRate::cpu.data     0.035316                       # miss rate for WriteReq accesses (Ratio)
system.cpu.dcache.WriteReq.missRate::total     0.035316                       # miss rate for WriteReq accesses (Ratio)
system.cpu.dcache.WriteReq.avgMissLatency::cpu.data 81755.089752                       # average WriteReq miss latency ((Tick/Count))
system.cpu.dcache.WriteReq.avgMissLatency::total 81755.089752                       # average WriteReq miss latency ((Tick/Count))
system.cpu.dcache.WriteReq.mshrMisses::cpu.data      7565197                       # number of WriteReq MSHR misses (Count)
system.cpu.dcache.WriteReq.mshrMisses::total      7565197                       # number of WriteReq MSHR misses (Count)
system.cpu.dcache.WriteReq.mshrMissLatency::cpu.data 607779494120                       # number of WriteReq MSHR miss ticks (Tick)
system.cpu.dcache.WriteReq.mshrMissLatency::total 607779494120                       # number of WriteReq MSHR miss ticks (Tick)
system.cpu.dcache.WriteReq.mshrMissRate::cpu.data     0.035316                       # mshr miss rate for WriteReq accesses (Ratio)
system.cpu.dcache.WriteReq.mshrMissRate::total     0.035316                       # mshr miss rate for WriteReq accesses (Ratio)
system.cpu.dcache.WriteReq.avgMshrMissLatency::cpu.data 80338.885309                       # average WriteReq mshr miss latency ((Tick/Count))
system.cpu.dcache.WriteReq.avgMshrMissLatency::total 80338.885309                       # average WriteReq mshr miss latency ((Tick/Count))
system.cpu.dcache.power_state.pwrStateResidencyTicks::UNDEFINED 2783974822316                       # Cumulative time (in ticks) in various power states (Tick)
system.cpu.dcache.tags.tagsInUse           498.486747                       # Average ticks per tags in use ((Tick/Count))
system.cpu.dcache.tags.totalRefs            574798202                       # Total number of references to valid blocks. (Count)
system.cpu.dcache.tags.sampledRefs           22005191                       # Sample count of references to valid blocks. (Count)
system.cpu.dcache.tags.avgRefs              26.121028                       # Average number of references to valid blocks. ((Count/Count))
system.cpu.dcache.tags.warmupTick              192500                       # The tick when the warmup percentage was hit. (Tick)
system.cpu.dcache.tags.occupancies::cpu.data   498.486747                       # Average occupied blocks per tick, per requestor ((Count/Tick))
system.cpu.dcache.tags.avgOccs::cpu.data     0.973607                       # Average percentage of cache occupancy ((Ratio/Tick))
system.cpu.dcache.tags.avgOccs::total        0.973607                       # Average percentage of cache occupancy ((Ratio/Tick))
system.cpu.dcache.tags.occupanciesTaskId::1024          512                       # Occupied blocks per task id (Count)
system.cpu.dcache.tags.ageTaskId_1024::0           13                       # Occupied blocks per task id, per block age (Count)
system.cpu.dcache.tags.ageTaskId_1024::1          253                       # Occupied blocks per task id, per block age (Count)
system.cpu.dcache.tags.ageTaskId_1024::2          244                       # Occupied blocks per task id, per block age (Count)
system.cpu.dcache.tags.ageTaskId_1024::3            2                       # Occupied blocks per task id, per block age (Count)
system.cpu.dcache.tags.ratioOccsTaskId::1024            1                       # Ratio of occupied blocks and all blocks, per task id (Ratio)
system.cpu.dcache.tags.tagAccesses         2336956023                       # Number of tag accesses (Count)
system.cpu.dcache.tags.dataAccesses        2336956023                       # Number of data accesses (Count)
system.cpu.dcache.tags.power_state.pwrStateResidencyTicks::UNDEFINED 2783974822316                       # Cumulative time (in ticks) in various power states (Tick)
system.cpu.exec_context.thread_0.numInsts   1000000000                       # Number of instructions committed (Count)
system.cpu.exec_context.thread_0.numOps    1160869040                       # Number of ops (including micro ops) committed (Count)
system.cpu.exec_context.thread_0.numIntAluAccesses   1022477222                       # Number of integer alu accesses (Count)
system.cpu.exec_context.thread_0.numFpAluAccesses            0                       # Number of float alu accesses (Count)
system.cpu.exec_context.thread_0.numVecAluAccesses            0                       # Number of vector alu accesses (Count)
system.cpu.exec_context.thread_0.numCallsReturns      9763574                       # Number of times a function call or return occured (Count)
system.cpu.exec_context.thread_0.numCondCtrlInsts    121357825                       # Number of instructions that are conditional controls (Count)
system.cpu.exec_context.thread_0.numIntInsts   1022477222                       # Number of integer instructions (Count)
system.cpu.exec_context.thread_0.numFpInsts            0                       # Number of float instructions (Count)
system.cpu.exec_context.thread_0.numVecInsts            0                       # Number of vector instructions (Count)
system.cpu.exec_context.thread_0.numIntRegReads   1490350691                       # Number of times the integer registers were read (Count)
system.cpu.exec_context.thread_0.numIntRegWrites    709086788                       # Number of times the integer registers were written (Count)
system.cpu.exec_context.thread_0.numFpRegReads            0                       # Number of times the floating registers were read (Count)
system.cpu.exec_context.thread_0.numFpRegWrites            0                       # Number of times the floating registers were written (Count)
system.cpu.exec_context.thread_0.numVecRegReads           30                       # Number of times the vector registers were read (Count)
system.cpu.exec_context.thread_0.numVecRegWrites           16                       # Number of times the vector registers were written (Count)
system.cpu.exec_context.thread_0.numVecPredRegReads            0                       # Number of times the predicate registers were read (Count)
system.cpu.exec_context.thread_0.numVecPredRegWrites            0                       # Number of times the predicate registers were written (Count)
system.cpu.exec_context.thread_0.numCCRegReads   4588092440                       # Number of times the CC registers were read (Count)
system.cpu.exec_context.thread_0.numCCRegWrites    615289479                       # Number of times the CC registers were written (Count)
system.cpu.exec_context.thread_0.numMiscRegReads    573232729                       # Number of times the Misc registers were read (Count)
system.cpu.exec_context.thread_0.numMiscRegWrites           79                       # Number of times the Misc registers were written (Count)
system.cpu.exec_context.thread_0.numMemRefs    585493583                       # Number of memory refs (Count)
system.cpu.exec_context.thread_0.numLoadInsts    369107983                       # Number of load instructions (Count)
system.cpu.exec_context.thread_0.numStoreInsts    216385600                       # Number of store instructions (Count)
system.cpu.exec_context.thread_0.numIdleCycles            0                       # Number of idle cycles (Cycle)
system.cpu.exec_context.thread_0.numBusyCycles   5007148961                       # Number of busy cycles (Cycle)
system.cpu.exec_context.thread_0.notIdleFraction            1                       # Percentage of non-idle cycles (Ratio)
system.cpu.exec_context.thread_0.idleFraction            0                       # Percentage of idle cycles (Ratio)
system.cpu.exec_context.thread_0.numBranches    144008835                       # Number of branches fetched (Count)
system.cpu.exec_context.thread_0.statExecutedInstType::No_OpClass            0      0.00%      0.00% # Class of executed instruction. (Count)
system.cpu.exec_context.thread_0.statExecutedInstType::IntAlu    582133689     49.86%     49.86% # Class of executed instruction. (Count)
system.cpu.exec_context.thread_0.statExecutedInstType::IntMult          809      0.00%     49.86% # Class of executed instruction. (Count)
system.cpu.exec_context.thread_0.statExecutedInstType::IntDiv            0      0.00%     49.86% # Class of executed instruction. (Count)
system.cpu.exec_context.thread_0.statExecutedInstType::FloatAdd            0      0.00%     49.86% # Class of executed instruction. (Count)
system.cpu.exec_context.thread_0.statExecutedInstType::FloatCmp            0      0.00%     49.86% # Class of executed instruction. (Count)
system.cpu.exec_context.thread_0.statExecutedInstType::FloatCvt            0      0.00%     49.86% # Class of executed instruction. (Count)
system.cpu.exec_context.thread_0.statExecutedInstType::FloatMult            0      0.00%     49.86% # Class of executed instruction. (Count)
system.cpu.exec_context.thread_0.statExecutedInstType::FloatMultAcc            0      0.00%     49.86% # Class of executed instruction. (Count)
system.cpu.exec_context.thread_0.statExecutedInstType::FloatDiv            0      0.00%     49.86% # Class of executed instruction. (Count)
system.cpu.exec_context.thread_0.statExecutedInstType::FloatMisc            0      0.00%     49.86% # Class of executed instruction. (Count)
system.cpu.exec_context.thread_0.statExecutedInstType::FloatSqrt            0      0.00%     49.86% # Class of executed instruction. (Count)
system.cpu.exec_context.thread_0.statExecutedInstType::SimdAdd            0      0.00%     49.86% # Class of executed instruction. (Count)
system.cpu.exec_context.thread_0.statExecutedInstType::SimdAddAcc            0      0.00%     49.86% # Class of executed instruction. (Count)
system.cpu.exec_context.thread_0.statExecutedInstType::SimdAlu            0      0.00%     49.86% # Class of executed instruction. (Count)
system.cpu.exec_context.thread_0.statExecutedInstType::SimdCmp            0      0.00%     49.86% # Class of executed instruction. (Count)
system.cpu.exec_context.thread_0.statExecutedInstType::SimdCvt            0      0.00%     49.86% # Class of executed instruction. (Count)
system.cpu.exec_context.thread_0.statExecutedInstType::SimdMisc            0      0.00%     49.86% # Class of executed instruction. (Count)
system.cpu.exec_context.thread_0.statExecutedInstType::SimdMult            0      0.00%     49.86% # Class of executed instruction. (Count)
system.cpu.exec_context.thread_0.statExecutedInstType::SimdMultAcc            0      0.00%     49.86% # Class of executed instruction. (Count)
system.cpu.exec_context.thread_0.statExecutedInstType::SimdShift            0      0.00%     49.86% # Class of executed instruction. (Count)
system.cpu.exec_context.thread_0.statExecutedInstType::SimdShiftAcc            0      0.00%     49.86% # Class of executed instruction. (Count)
system.cpu.exec_context.thread_0.statExecutedInstType::SimdDiv            0      0.00%     49.86% # Class of executed instruction. (Count)
system.cpu.exec_context.thread_0.statExecutedInstType::SimdSqrt            0      0.00%     49.86% # Class of executed instruction. (Count)
system.cpu.exec_context.thread_0.statExecutedInstType::SimdFloatAdd            0      0.00%     49.86% # Class of executed instruction. (Count)
system.cpu.exec_context.thread_0.statExecutedInstType::SimdFloatAlu            0      0.00%     49.86% # Class of executed instruction. (Count)
system.cpu.exec_context.thread_0.statExecutedInstType::SimdFloatCmp            0      0.00%     49.86% # Class of executed instruction. (Count)
system.cpu.exec_context.thread_0.statExecutedInstType::SimdFloatCvt            0      0.00%     49.86% # Class of executed instruction. (Count)
system.cpu.exec_context.thread_0.statExecutedInstType::SimdFloatDiv            0      0.00%     49.86% # Class of executed instruction. (Count)
system.cpu.exec_context.thread_0.statExecutedInstType::SimdFloatMisc            3      0.00%     49.86% # Class of executed instruction. (Count)
system.cpu.exec_context.thread_0.statExecutedInstType::SimdFloatMult            0      0.00%     49.86% # Class of executed instruction. (Count)
system.cpu.exec_context.thread_0.statExecutedInstType::SimdFloatMultAcc            0      0.00%     49.86% # Class of executed instruction. (Count)
system.cpu.exec_context.thread_0.statExecutedInstType::SimdFloatSqrt            0      0.00%     49.86% # Class of executed instruction. (Count)
system.cpu.exec_context.thread_0.statExecutedInstType::SimdReduceAdd            0      0.00%     49.86% # Class of executed instruction. (Count)
system.cpu.exec_context.thread_0.statExecutedInstType::SimdReduceAlu            0      0.00%     49.86% # Class of executed instruction. (Count)
system.cpu.exec_context.thread_0.statExecutedInstType::SimdReduceCmp            0      0.00%     49.86% # Class of executed instruction. (Count)
system.cpu.exec_context.thread_0.statExecutedInstType::SimdFloatReduceAdd            0      0.00%     49.86% # Class of executed instruction. (Count)
system.cpu.exec_context.thread_0.statExecutedInstType::SimdFloatReduceCmp            0      0.00%     49.86% # Class of executed instruction. (Count)
system.cpu.exec_context.thread_0.statExecutedInstType::SimdAes            0      0.00%     49.86% # Class of executed instruction. (Count)
system.cpu.exec_context.thread_0.statExecutedInstType::SimdAesMix            0      0.00%     49.86% # Class of executed instruction. (Count)
system.cpu.exec_context.thread_0.statExecutedInstType::SimdSha1Hash            0      0.00%     49.86% # Class of executed instruction. (Count)
system.cpu.exec_context.thread_0.statExecutedInstType::SimdSha1Hash2            0      0.00%     49.86% # Class of executed instruction. (Count)
system.cpu.exec_context.thread_0.statExecutedInstType::SimdSha256Hash            0      0.00%     49.86% # Class of executed instruction. (Count)
system.cpu.exec_context.thread_0.statExecutedInstType::SimdSha256Hash2            0      0.00%     49.86% # Class of executed instruction. (Count)
system.cpu.exec_context.thread_0.statExecutedInstType::SimdShaSigma2            0      0.00%     49.86% # Class of executed instruction. (Count)
system.cpu.exec_context.thread_0.statExecutedInstType::SimdShaSigma3            0      0.00%     49.86% # Class of executed instruction. (Count)
system.cpu.exec_context.thread_0.statExecutedInstType::SimdPredAlu            0      0.00%     49.86% # Class of executed instruction. (Count)
system.cpu.exec_context.thread_0.statExecutedInstType::MemRead    369107983     31.61%     81.47% # Class of executed instruction. (Count)
system.cpu.exec_context.thread_0.statExecutedInstType::MemWrite    216385600     18.53%    100.00% # Class of executed instruction. (Count)
system.cpu.exec_context.thread_0.statExecutedInstType::FloatMemRead            0      0.00%    100.00% # Class of executed instruction. (Count)
system.cpu.exec_context.thread_0.statExecutedInstType::FloatMemWrite            0      0.00%    100.00% # Class of executed instruction. (Count)
system.cpu.exec_context.thread_0.statExecutedInstType::IprAccess            0      0.00%    100.00% # Class of executed instruction. (Count)
system.cpu.exec_context.thread_0.statExecutedInstType::InstPrefetch            0      0.00%    100.00% # Class of executed instruction. (Count)
system.cpu.exec_context.thread_0.statExecutedInstType::total   1167628084                       # Class of executed instruction. (Count)
system.cpu.icache.demandHits::cpu.inst     1199692823                       # number of demand (read+write) hits (Count)
system.cpu.icache.demandHits::total        1199692823                       # number of demand (read+write) hits (Count)
system.cpu.icache.overallHits::cpu.inst    1199692823                       # number of overall hits (Count)
system.cpu.icache.overallHits::total       1199692823                       # number of overall hits (Count)
system.cpu.icache.demandMisses::cpu.inst          627                       # number of demand (read+write) misses (Count)
system.cpu.icache.demandMisses::total             627                       # number of demand (read+write) misses (Count)
system.cpu.icache.overallMisses::cpu.inst          627                       # number of overall misses (Count)
system.cpu.icache.overallMisses::total            627                       # number of overall misses (Count)
system.cpu.icache.demandMissLatency::cpu.inst     56430664                       # number of demand (read+write) miss ticks (Tick)
system.cpu.icache.demandMissLatency::total     56430664                       # number of demand (read+write) miss ticks (Tick)
system.cpu.icache.overallMissLatency::cpu.inst     56430664                       # number of overall miss ticks (Tick)
system.cpu.icache.overallMissLatency::total     56430664                       # number of overall miss ticks (Tick)
system.cpu.icache.demandAccesses::cpu.inst   1199693450                       # number of demand (read+write) accesses (Count)
system.cpu.icache.demandAccesses::total    1199693450                       # number of demand (read+write) accesses (Count)
system.cpu.icache.overallAccesses::cpu.inst   1199693450                       # number of overall (read+write) accesses (Count)
system.cpu.icache.overallAccesses::total   1199693450                       # number of overall (read+write) accesses (Count)
system.cpu.icache.demandMissRate::cpu.inst     0.000001                       # miss rate for demand accesses (Ratio)
system.cpu.icache.demandMissRate::total      0.000001                       # miss rate for demand accesses (Ratio)
system.cpu.icache.overallMissRate::cpu.inst     0.000001                       # miss rate for overall accesses (Ratio)
system.cpu.icache.overallMissRate::total     0.000001                       # miss rate for overall accesses (Ratio)
system.cpu.icache.demandAvgMissLatency::cpu.inst 90001.059011                       # average overall miss latency in ticks ((Tick/Count))
system.cpu.icache.demandAvgMissLatency::total 90001.059011                       # average overall miss latency in ticks ((Tick/Count))
system.cpu.icache.overallAvgMissLatency::cpu.inst 90001.059011                       # average overall miss latency ((Tick/Count))
system.cpu.icache.overallAvgMissLatency::total 90001.059011                       # average overall miss latency ((Tick/Count))
system.cpu.icache.blockedCycles::no_mshrs            0                       # number of cycles access was blocked (Cycle)
system.cpu.icache.blockedCycles::no_targets            0                       # number of cycles access was blocked (Cycle)
system.cpu.icache.blockedCauses::no_mshrs            0                       # number of times access was blocked (Count)
system.cpu.icache.blockedCauses::no_targets            0                       # number of times access was blocked (Count)
system.cpu.icache.avgBlocked::no_mshrs            nan                       # average number of cycles each access was blocked ((Cycle/Count))
system.cpu.icache.avgBlocked::no_targets          nan                       # average number of cycles each access was blocked ((Cycle/Count))
system.cpu.icache.demandMshrMisses::cpu.inst          627                       # number of demand (read+write) MSHR misses (Count)
system.cpu.icache.demandMshrMisses::total          627                       # number of demand (read+write) MSHR misses (Count)
system.cpu.icache.overallMshrMisses::cpu.inst          627                       # number of overall MSHR misses (Count)
system.cpu.icache.overallMshrMisses::total          627                       # number of overall MSHR misses (Count)
system.cpu.icache.demandMshrMissLatency::cpu.inst     55556856                       # number of demand (read+write) MSHR miss ticks (Tick)
system.cpu.icache.demandMshrMissLatency::total     55556856                       # number of demand (read+write) MSHR miss ticks (Tick)
system.cpu.icache.overallMshrMissLatency::cpu.inst     55556856                       # number of overall MSHR miss ticks (Tick)
system.cpu.icache.overallMshrMissLatency::total     55556856                       # number of overall MSHR miss ticks (Tick)
system.cpu.icache.demandMshrMissRate::cpu.inst     0.000001                       # mshr miss ratio for demand accesses (Ratio)
system.cpu.icache.demandMshrMissRate::total     0.000001                       # mshr miss ratio for demand accesses (Ratio)
system.cpu.icache.overallMshrMissRate::cpu.inst     0.000001                       # mshr miss ratio for overall accesses (Ratio)
system.cpu.icache.overallMshrMissRate::total     0.000001                       # mshr miss ratio for overall accesses (Ratio)
system.cpu.icache.demandAvgMshrMissLatency::cpu.inst 88607.425837                       # average overall mshr miss latency ((Tick/Count))
system.cpu.icache.demandAvgMshrMissLatency::total 88607.425837                       # average overall mshr miss latency ((Tick/Count))
system.cpu.icache.overallAvgMshrMissLatency::cpu.inst 88607.425837                       # average overall mshr miss latency ((Tick/Count))
system.cpu.icache.overallAvgMshrMissLatency::total 88607.425837                       # average overall mshr miss latency ((Tick/Count))
system.cpu.icache.replacements                    177                       # number of replacements (Count)
system.cpu.icache.ReadReq.hits::cpu.inst   1199692823                       # number of ReadReq hits (Count)
system.cpu.icache.ReadReq.hits::total      1199692823                       # number of ReadReq hits (Count)
system.cpu.icache.ReadReq.misses::cpu.inst          627                       # number of ReadReq misses (Count)
system.cpu.icache.ReadReq.misses::total           627                       # number of ReadReq misses (Count)
system.cpu.icache.ReadReq.missLatency::cpu.inst     56430664                       # number of ReadReq miss ticks (Tick)
system.cpu.icache.ReadReq.missLatency::total     56430664                       # number of ReadReq miss ticks (Tick)
system.cpu.icache.ReadReq.accesses::cpu.inst   1199693450                       # number of ReadReq accesses(hits+misses) (Count)
system.cpu.icache.ReadReq.accesses::total   1199693450                       # number of ReadReq accesses(hits+misses) (Count)
system.cpu.icache.ReadReq.missRate::cpu.inst     0.000001                       # miss rate for ReadReq accesses (Ratio)
system.cpu.icache.ReadReq.missRate::total     0.000001                       # miss rate for ReadReq accesses (Ratio)
system.cpu.icache.ReadReq.avgMissLatency::cpu.inst 90001.059011                       # average ReadReq miss latency ((Tick/Count))
system.cpu.icache.ReadReq.avgMissLatency::total 90001.059011                       # average ReadReq miss latency ((Tick/Count))
system.cpu.icache.ReadReq.mshrMisses::cpu.inst          627                       # number of ReadReq MSHR misses (Count)
system.cpu.icache.ReadReq.mshrMisses::total          627                       # number of ReadReq MSHR misses (Count)
system.cpu.icache.ReadReq.mshrMissLatency::cpu.inst     55556856                       # number of ReadReq MSHR miss ticks (Tick)
system.cpu.icache.ReadReq.mshrMissLatency::total     55556856                       # number of ReadReq MSHR miss ticks (Tick)
system.cpu.icache.ReadReq.mshrMissRate::cpu.inst     0.000001                       # mshr miss rate for ReadReq accesses (Ratio)
system.cpu.icache.ReadReq.mshrMissRate::total     0.000001                       # mshr miss rate for ReadReq accesses (Ratio)
system.cpu.icache.ReadReq.avgMshrMissLatency::cpu.inst 88607.425837                       # average ReadReq mshr miss latency ((Tick/Count))
system.cpu.icache.ReadReq.avgMshrMissLatency::total 88607.425837                       # average ReadReq mshr miss latency ((Tick/Count))
system.cpu.icache.power_state.pwrStateResidencyTicks::UNDEFINED 2783974822316                       # Cumulative time (in ticks) in various power states (Tick)
system.cpu.icache.tags.tagsInUse           373.595498                       # Average ticks per tags in use ((Tick/Count))
system.cpu.icache.tags.totalRefs           1199693450                       # Total number of references to valid blocks. (Count)
system.cpu.icache.tags.sampledRefs                627                       # Sample count of references to valid blocks. (Count)
system.cpu.icache.tags.avgRefs           1913386.682616                       # Average number of references to valid blocks. ((Count/Count))
system.cpu.icache.tags.warmupTick               96000                       # The tick when the warmup percentage was hit. (Tick)
system.cpu.icache.tags.occupancies::cpu.inst   373.595498                       # Average occupied blocks per tick, per requestor ((Count/Tick))
system.cpu.icache.tags.avgOccs::cpu.inst     0.729679                       # Average percentage of cache occupancy ((Ratio/Tick))
system.cpu.icache.tags.avgOccs::total        0.729679                       # Average percentage of cache occupancy ((Ratio/Tick))
system.cpu.icache.tags.occupanciesTaskId::1024          450                       # Occupied blocks per task id (Count)
system.cpu.icache.tags.ageTaskId_1024::4          450                       # Occupied blocks per task id, per block age (Count)
system.cpu.icache.tags.ratioOccsTaskId::1024     0.878906                       # Ratio of occupied blocks and all blocks, per task id (Ratio)
system.cpu.icache.tags.tagAccesses         4798774427                       # Number of tag accesses (Count)
system.cpu.icache.tags.dataAccesses        4798774427                       # Number of data accesses (Count)
system.cpu.icache.tags.power_state.pwrStateResidencyTicks::UNDEFINED 2783974822316                       # Cumulative time (in ticks) in various power states (Tick)
system.cpu.mmu.alignFaults                          0                       # Number of MMU faults due to alignment restrictions (Count)
system.cpu.mmu.prefetchFaults                       0                       # Number of MMU faults due to prefetch (Count)
system.cpu.mmu.domainFaults                         0                       # Number of MMU faults due to domain restrictions (Count)
system.cpu.mmu.permsFaults                          0                       # Number of MMU faults due to permissions restrictions (Count)
system.cpu.mmu.dtb.readHits                         0                       # Read hits (Count)
system.cpu.mmu.dtb.readMisses                       0                       # Read misses (Count)
system.cpu.mmu.dtb.writeHits                        0                       # Write hits (Count)
system.cpu.mmu.dtb.writeMisses                      0                       # Write misses (Count)
system.cpu.mmu.dtb.inserts                          0                       # Number of times an entry is inserted into the TLB (Count)
system.cpu.mmu.dtb.flushTlb                         0                       # Number of times complete TLB was flushed (Count)
system.cpu.mmu.dtb.flushTlbMva                      0                       # Number of times TLB was flushed by MVA (Count)
system.cpu.mmu.dtb.flushTlbMvaAsid                  0                       # Number of times TLB was flushed by MVA & ASID (Count)
system.cpu.mmu.dtb.flushTlbAsid                     0                       # Number of times TLB was flushed by ASID (Count)
system.cpu.mmu.dtb.flushedEntries                   0                       # Number of entries that have been flushed from TLB (Count)
system.cpu.mmu.dtb.readAccesses                     0                       # Read accesses (Count)
system.cpu.mmu.dtb.writeAccesses                    0                       # Write accesses (Count)
system.cpu.mmu.dtb.hits                             0                       # Total TLB (inst and data) hits (Count)
system.cpu.mmu.dtb.misses                           0                       # Total TLB (inst and data) misses (Count)
system.cpu.mmu.dtb.accesses                         0                       # Total TLB (inst and data) accesses (Count)
system.cpu.mmu.dtb_walker.walks                     0                       # Table walker walks requested (Count)
system.cpu.mmu.dtb_walker.requestOrigin_Requested::Data            0                       # Table walker requests started/completed, data/inst (Count)
system.cpu.mmu.dtb_walker.requestOrigin_Requested::Inst            0                       # Table walker requests started/completed, data/inst (Count)
system.cpu.mmu.dtb_walker.requestOrigin_Requested::total            0                       # Table walker requests started/completed, data/inst (Count)
system.cpu.mmu.dtb_walker.requestOrigin_Completed::Data            0                       # Table walker requests started/completed, data/inst (Count)
system.cpu.mmu.dtb_walker.requestOrigin_Completed::Inst            0                       # Table walker requests started/completed, data/inst (Count)
system.cpu.mmu.dtb_walker.requestOrigin_Completed::total            0                       # Table walker requests started/completed, data/inst (Count)
system.cpu.mmu.dtb_walker.requestOrigin::total            0                       # Table walker requests started/completed, data/inst (Count)
system.cpu.mmu.dtb_walker.power_state.pwrStateResidencyTicks::UNDEFINED 2783974822316                       # Cumulative time (in ticks) in various power states (Tick)
system.cpu.mmu.itb.instHits                         0                       # Inst hits (Count)
system.cpu.mmu.itb.instMisses                       0                       # Inst misses (Count)
system.cpu.mmu.itb.inserts                          0                       # Number of times an entry is inserted into the TLB (Count)
system.cpu.mmu.itb.flushTlb                         0                       # Number of times complete TLB was flushed (Count)
system.cpu.mmu.itb.flushTlbMva                      0                       # Number of times TLB was flushed by MVA (Count)
system.cpu.mmu.itb.flushTlbMvaAsid                  0                       # Number of times TLB was flushed by MVA & ASID (Count)
system.cpu.mmu.itb.flushTlbAsid                     0                       # Number of times TLB was flushed by ASID (Count)
system.cpu.mmu.itb.flushedEntries                   0                       # Number of entries that have been flushed from TLB (Count)
system.cpu.mmu.itb.instAccesses                     0                       # Inst accesses (Count)
system.cpu.mmu.itb.hits                             0                       # Total TLB (inst and data) hits (Count)
system.cpu.mmu.itb.misses                           0                       # Total TLB (inst and data) misses (Count)
system.cpu.mmu.itb.accesses                         0                       # Total TLB (inst and data) accesses (Count)
system.cpu.mmu.itb_walker.walks                     0                       # Table walker walks requested (Count)
system.cpu.mmu.itb_walker.requestOrigin_Requested::Data            0                       # Table walker requests started/completed, data/inst (Count)
system.cpu.mmu.itb_walker.requestOrigin_Requested::Inst            0                       # Table walker requests started/completed, data/inst (Count)
system.cpu.mmu.itb_walker.requestOrigin_Requested::total            0                       # Table walker requests started/completed, data/inst (Count)
system.cpu.mmu.itb_walker.requestOrigin_Completed::Data            0                       # Table walker requests started/completed, data/inst (Count)
system.cpu.mmu.itb_walker.requestOrigin_Completed::Inst            0                       # Table walker requests started/completed, data/inst (Count)
system.cpu.mmu.itb_walker.requestOrigin_Completed::total            0                       # Table walker requests started/completed, data/inst (Count)
system.cpu.mmu.itb_walker.requestOrigin::total            0                       # Table walker requests started/completed, data/inst (Count)
system.cpu.mmu.itb_walker.power_state.pwrStateResidencyTicks::UNDEFINED 2783974822316                       # Cumulative time (in ticks) in various power states (Tick)
system.cpu.mmu.l2_shared.instHits                   0                       # Inst hits (Count)
system.cpu.mmu.l2_shared.instMisses                 0                       # Inst misses (Count)
system.cpu.mmu.l2_shared.inserts                    0                       # Number of times an entry is inserted into the TLB (Count)
system.cpu.mmu.l2_shared.flushTlb                   0                       # Number of times complete TLB was flushed (Count)
system.cpu.mmu.l2_shared.flushTlbMva                0                       # Number of times TLB was flushed by MVA (Count)
system.cpu.mmu.l2_shared.flushTlbMvaAsid            0                       # Number of times TLB was flushed by MVA & ASID (Count)
system.cpu.mmu.l2_shared.flushTlbAsid               0                       # Number of times TLB was flushed by ASID (Count)
system.cpu.mmu.l2_shared.flushedEntries             0                       # Number of entries that have been flushed from TLB (Count)
system.cpu.mmu.l2_shared.instAccesses               0                       # Inst accesses (Count)
system.cpu.mmu.l2_shared.hits                       0                       # Total TLB (inst and data) hits (Count)
system.cpu.mmu.l2_shared.misses                     0                       # Total TLB (inst and data) misses (Count)
system.cpu.mmu.l2_shared.accesses                   0                       # Total TLB (inst and data) accesses (Count)
system.cpu.mmu.stage2_dtb.readHits                  0                       # Read hits (Count)
system.cpu.mmu.stage2_dtb.readMisses                0                       # Read misses (Count)
system.cpu.mmu.stage2_dtb.writeHits                 0                       # Write hits (Count)
system.cpu.mmu.stage2_dtb.writeMisses               0                       # Write misses (Count)
system.cpu.mmu.stage2_dtb.inserts                   0                       # Number of times an entry is inserted into the TLB (Count)
system.cpu.mmu.stage2_dtb.flushTlb                  0                       # Number of times complete TLB was flushed (Count)
system.cpu.mmu.stage2_dtb.flushTlbMva               0                       # Number of times TLB was flushed by MVA (Count)
system.cpu.mmu.stage2_dtb.flushTlbMvaAsid            0                       # Number of times TLB was flushed by MVA & ASID (Count)
system.cpu.mmu.stage2_dtb.flushTlbAsid              0                       # Number of times TLB was flushed by ASID (Count)
system.cpu.mmu.stage2_dtb.flushedEntries            0                       # Number of entries that have been flushed from TLB (Count)
system.cpu.mmu.stage2_dtb.readAccesses              0                       # Read accesses (Count)
system.cpu.mmu.stage2_dtb.writeAccesses             0                       # Write accesses (Count)
system.cpu.mmu.stage2_dtb.hits                      0                       # Total TLB (inst and data) hits (Count)
system.cpu.mmu.stage2_dtb.misses                    0                       # Total TLB (inst and data) misses (Count)
system.cpu.mmu.stage2_dtb.accesses                  0                       # Total TLB (inst and data) accesses (Count)
system.cpu.mmu.stage2_dtb_walker.walks              0                       # Table walker walks requested (Count)
system.cpu.mmu.stage2_dtb_walker.requestOrigin_Requested::Data            0                       # Table walker requests started/completed, data/inst (Count)
system.cpu.mmu.stage2_dtb_walker.requestOrigin_Requested::Inst            0                       # Table walker requests started/completed, data/inst (Count)
system.cpu.mmu.stage2_dtb_walker.requestOrigin_Requested::total            0                       # Table walker requests started/completed, data/inst (Count)
system.cpu.mmu.stage2_dtb_walker.requestOrigin_Completed::Data            0                       # Table walker requests started/completed, data/inst (Count)
system.cpu.mmu.stage2_dtb_walker.requestOrigin_Completed::Inst            0                       # Table walker requests started/completed, data/inst (Count)
system.cpu.mmu.stage2_dtb_walker.requestOrigin_Completed::total            0                       # Table walker requests started/completed, data/inst (Count)
system.cpu.mmu.stage2_dtb_walker.requestOrigin::total            0                       # Table walker requests started/completed, data/inst (Count)
system.cpu.mmu.stage2_dtb_walker.power_state.pwrStateResidencyTicks::UNDEFINED 2783974822316                       # Cumulative time (in ticks) in various power states (Tick)
system.cpu.mmu.stage2_itb.instHits                  0                       # Inst hits (Count)
system.cpu.mmu.stage2_itb.instMisses                0                       # Inst misses (Count)
system.cpu.mmu.stage2_itb.inserts                   0                       # Number of times an entry is inserted into the TLB (Count)
system.cpu.mmu.stage2_itb.flushTlb                  0                       # Number of times complete TLB was flushed (Count)
system.cpu.mmu.stage2_itb.flushTlbMva               0                       # Number of times TLB was flushed by MVA (Count)
system.cpu.mmu.stage2_itb.flushTlbMvaAsid            0                       # Number of times TLB was flushed by MVA & ASID (Count)
system.cpu.mmu.stage2_itb.flushTlbAsid              0                       # Number of times TLB was flushed by ASID (Count)
system.cpu.mmu.stage2_itb.flushedEntries            0                       # Number of entries that have been flushed from TLB (Count)
system.cpu.mmu.stage2_itb.instAccesses              0                       # Inst accesses (Count)
system.cpu.mmu.stage2_itb.hits                      0                       # Total TLB (inst and data) hits (Count)
system.cpu.mmu.stage2_itb.misses                    0                       # Total TLB (inst and data) misses (Count)
system.cpu.mmu.stage2_itb.accesses                  0                       # Total TLB (inst and data) accesses (Count)
system.cpu.mmu.stage2_itb_walker.walks              0                       # Table walker walks requested (Count)
system.cpu.mmu.stage2_itb_walker.requestOrigin_Requested::Data            0                       # Table walker requests started/completed, data/inst (Count)
system.cpu.mmu.stage2_itb_walker.requestOrigin_Requested::Inst            0                       # Table walker requests started/completed, data/inst (Count)
system.cpu.mmu.stage2_itb_walker.requestOrigin_Requested::total            0                       # Table walker requests started/completed, data/inst (Count)
system.cpu.mmu.stage2_itb_walker.requestOrigin_Completed::Data            0                       # Table walker requests started/completed, data/inst (Count)
system.cpu.mmu.stage2_itb_walker.requestOrigin_Completed::Inst            0                       # Table walker requests started/completed, data/inst (Count)
system.cpu.mmu.stage2_itb_walker.requestOrigin_Completed::total            0                       # Table walker requests started/completed, data/inst (Count)
system.cpu.mmu.stage2_itb_walker.requestOrigin::total            0                       # Table walker requests started/completed, data/inst (Count)
system.cpu.mmu.stage2_itb_walker.power_state.pwrStateResidencyTicks::UNDEFINED 2783974822316                       # Cumulative time (in ticks) in various power states (Tick)
system.cpu.power_state.pwrStateResidencyTicks::ON 2783974822316                       # Cumulative time (in ticks) in various power states (Tick)
system.cpu.thread_0.numInsts                        0                       # Number of Instructions committed (Count)
system.cpu.thread_0.numOps                          0                       # Number of Ops committed (Count)
system.cpu.thread_0.numMemRefs                      0                       # Number of Memory References (Count)
system.cpu.workload.numSyscalls                   420                       # Number of system calls (Count)
system.cpu_clk_domain.clock                       556                       # Clock period in ticks (Tick)
system.cpu_clk_domain.voltage_domain.voltage            1                       # Voltage in Volts (Volt)
system.l2bus.transDist::ReadResp             14440621                       # Transaction distribution (Count)
system.l2bus.transDist::WritebackDirty       15661771                       # Transaction distribution (Count)
system.l2bus.transDist::CleanEvict           15847627                       # Transaction distribution (Count)
system.l2bus.transDist::ReadExReq             7565197                       # Transaction distribution (Count)
system.l2bus.transDist::ReadExResp            7565197                       # Transaction distribution (Count)
system.l2bus.transDist::ReadSharedReq        14440621                       # Transaction distribution (Count)
system.l2bus.pktCount_system.cpu.icache.mem_side_port::system.l2cache.cpu_side_port         1431                       # Packet count per connected requestor and responder (Count)
system.l2bus.pktCount_system.cpu.dcache.mem_side_port::system.l2cache.cpu_side_port     66015061                       # Packet count per connected requestor and responder (Count)
system.l2bus.pktCount::total                 66016492                       # Packet count per connected requestor and responder (Count)
system.l2bus.pktSize_system.cpu.icache.mem_side_port::system.l2cache.cpu_side_port        40128                       # Cumulative packet size per connected requestor and responder (Byte)
system.l2bus.pktSize_system.cpu.dcache.mem_side_port::system.l2cache.cpu_side_port   2076764224                       # Cumulative packet size per connected requestor and responder (Byte)
system.l2bus.pktSize::total                2076804352                       # Cumulative packet size per connected requestor and responder (Byte)
system.l2bus.snoops                           9504542                       # Total snoops (Count)
system.l2bus.snoopTraffic                   333921344                       # Total snoop traffic (Byte)
system.l2bus.snoopFanout::samples            31510360                       # Request fanout histogram (Count)
system.l2bus.snoopFanout::mean               0.000138                       # Request fanout histogram (Count)
system.l2bus.snoopFanout::stdev              0.011763                       # Request fanout histogram (Count)
system.l2bus.snoopFanout::underflows                0      0.00%      0.00% # Request fanout histogram (Count)
system.l2bus.snoopFanout::0                  31505999     99.99%     99.99% # Request fanout histogram (Count)
system.l2bus.snoopFanout::1                      4361      0.01%    100.00% # Request fanout histogram (Count)
system.l2bus.snoopFanout::2                         0      0.00%    100.00% # Request fanout histogram (Count)
system.l2bus.snoopFanout::overflows                 0      0.00%    100.00% # Request fanout histogram (Count)
system.l2bus.snoopFanout::min_value                 0                       # Request fanout histogram (Count)
system.l2bus.snoopFanout::max_value                 1                       # Request fanout histogram (Count)
system.l2bus.snoopFanout::total              31510360                       # Request fanout histogram (Count)
system.l2bus.power_state.pwrStateResidencyTicks::UNDEFINED 2783974822316                       # Cumulative time (in ticks) in various power states (Tick)
system.l2bus.reqLayer0.occupancy          44041395128                       # Layer occupancy (ticks) (Tick)
system.l2bus.reqLayer0.utilization                0.0                       # Layer utilization (Ratio)
system.l2bus.respLayer0.occupancy              940500                       # Layer occupancy (ticks) (Tick)
system.l2bus.respLayer0.utilization               0.0                       # Layer utilization (Ratio)
system.l2bus.respLayer1.occupancy         33007786500                       # Layer occupancy (ticks) (Tick)
system.l2bus.respLayer1.utilization               0.0                       # Layer utilization (Ratio)
system.l2bus.snoop_filter.totRequests        44010674                       # Total number of requests made to the snoop filter. (Count)
system.l2bus.snoop_filter.hitSingleRequests     22004857                       # Number of requests hitting in the snoop filter with a single holder of the requested data. (Count)
system.l2bus.snoop_filter.hitMultiRequests         3712                       # Number of requests hitting in the snoop filter with multiple (>1) holders of the requested data. (Count)
system.l2bus.snoop_filter.totSnoops               648                       # Total number of snoops made to the snoop filter. (Count)
system.l2bus.snoop_filter.hitSingleSnoops          648                       # Number of snoops hitting in the snoop filter with a single holder of the requested data. (Count)
system.l2bus.snoop_filter.hitMultiSnoops            0                       # Number of snoops hitting in the snoop filter with multiple (>1) holders of the requested data. (Count)
system.l2cache.demandHits::cpu.inst                28                       # number of demand (read+write) hits (Count)
system.l2cache.demandHits::cpu.data          12468492                       # number of demand (read+write) hits (Count)
system.l2cache.demandHits::total             12468520                       # number of demand (read+write) hits (Count)
system.l2cache.overallHits::cpu.inst               28                       # number of overall hits (Count)
system.l2cache.overallHits::cpu.data         12468492                       # number of overall hits (Count)
system.l2cache.overallHits::total            12468520                       # number of overall hits (Count)
system.l2cache.demandMisses::cpu.inst             599                       # number of demand (read+write) misses (Count)
system.l2cache.demandMisses::cpu.data         9536699                       # number of demand (read+write) misses (Count)
system.l2cache.demandMisses::total            9537298                       # number of demand (read+write) misses (Count)
system.l2cache.overallMisses::cpu.inst            599                       # number of overall misses (Count)
system.l2cache.overallMisses::cpu.data        9536699                       # number of overall misses (Count)
system.l2cache.overallMisses::total           9537298                       # number of overall misses (Count)
system.l2cache.demandMissLatency::cpu.inst     54198180                       # number of demand (read+write) miss ticks (Tick)
system.l2cache.demandMissLatency::cpu.data 1044786266412                       # number of demand (read+write) miss ticks (Tick)
system.l2cache.demandMissLatency::total  1044840464592                       # number of demand (read+write) miss ticks (Tick)
system.l2cache.overallMissLatency::cpu.inst     54198180                       # number of overall miss ticks (Tick)
system.l2cache.overallMissLatency::cpu.data 1044786266412                       # number of overall miss ticks (Tick)
system.l2cache.overallMissLatency::total 1044840464592                       # number of overall miss ticks (Tick)
system.l2cache.demandAccesses::cpu.inst           627                       # number of demand (read+write) accesses (Count)
system.l2cache.demandAccesses::cpu.data      22005191                       # number of demand (read+write) accesses (Count)
system.l2cache.demandAccesses::total         22005818                       # number of demand (read+write) accesses (Count)
system.l2cache.overallAccesses::cpu.inst          627                       # number of overall (read+write) accesses (Count)
system.l2cache.overallAccesses::cpu.data     22005191                       # number of overall (read+write) accesses (Count)
system.l2cache.overallAccesses::total        22005818                       # number of overall (read+write) accesses (Count)
system.l2cache.demandMissRate::cpu.inst      0.955343                       # miss rate for demand accesses (Ratio)
system.l2cache.demandMissRate::cpu.data      0.433384                       # miss rate for demand accesses (Ratio)
system.l2cache.demandMissRate::total         0.433399                       # miss rate for demand accesses (Ratio)
system.l2cache.overallMissRate::cpu.inst     0.955343                       # miss rate for overall accesses (Ratio)
system.l2cache.overallMissRate::cpu.data     0.433384                       # miss rate for overall accesses (Ratio)
system.l2cache.overallMissRate::total        0.433399                       # miss rate for overall accesses (Ratio)
system.l2cache.demandAvgMissLatency::cpu.inst 90481.101836                       # average overall miss latency in ticks ((Tick/Count))
system.l2cache.demandAvgMissLatency::cpu.data 109554.287748                       # average overall miss latency in ticks ((Tick/Count))
system.l2cache.demandAvgMissLatency::total 109553.089837                       # average overall miss latency in ticks ((Tick/Count))
system.l2cache.overallAvgMissLatency::cpu.inst 90481.101836                       # average overall miss latency ((Tick/Count))
system.l2cache.overallAvgMissLatency::cpu.data 109554.287748                       # average overall miss latency ((Tick/Count))
system.l2cache.overallAvgMissLatency::total 109553.089837                       # average overall miss latency ((Tick/Count))
system.l2cache.blockedCycles::no_mshrs              0                       # number of cycles access was blocked (Cycle)
system.l2cache.blockedCycles::no_targets            0                       # number of cycles access was blocked (Cycle)
system.l2cache.blockedCauses::no_mshrs              0                       # number of times access was blocked (Count)
system.l2cache.blockedCauses::no_targets            0                       # number of times access was blocked (Count)
system.l2cache.avgBlocked::no_mshrs               nan                       # average number of cycles each access was blocked ((Cycle/Count))
system.l2cache.avgBlocked::no_targets             nan                       # average number of cycles each access was blocked ((Cycle/Count))
system.l2cache.writebacks::writebacks         5217521                       # number of writebacks (Count)
system.l2cache.writebacks::total              5217521                       # number of writebacks (Count)
system.l2cache.demandMshrMisses::cpu.inst          599                       # number of demand (read+write) MSHR misses (Count)
system.l2cache.demandMshrMisses::cpu.data      9536699                       # number of demand (read+write) MSHR misses (Count)
system.l2cache.demandMshrMisses::total        9537298                       # number of demand (read+write) MSHR misses (Count)
system.l2cache.overallMshrMisses::cpu.inst          599                       # number of overall MSHR misses (Count)
system.l2cache.overallMshrMisses::cpu.data      9536699                       # number of overall MSHR misses (Count)
system.l2cache.overallMshrMisses::total       9537298                       # number of overall MSHR misses (Count)
system.l2cache.demandMshrMissLatency::cpu.inst     48208180                       # number of demand (read+write) MSHR miss ticks (Tick)
system.l2cache.demandMshrMissLatency::cpu.data 949419276412                       # number of demand (read+write) MSHR miss ticks (Tick)
system.l2cache.demandMshrMissLatency::total 949467484592                       # number of demand (read+write) MSHR miss ticks (Tick)
system.l2cache.overallMshrMissLatency::cpu.inst     48208180                       # number of overall MSHR miss ticks (Tick)
system.l2cache.overallMshrMissLatency::cpu.data 949419276412                       # number of overall MSHR miss ticks (Tick)
system.l2cache.overallMshrMissLatency::total 949467484592                       # number of overall MSHR miss ticks (Tick)
system.l2cache.demandMshrMissRate::cpu.inst     0.955343                       # mshr miss ratio for demand accesses (Ratio)
system.l2cache.demandMshrMissRate::cpu.data     0.433384                       # mshr miss ratio for demand accesses (Ratio)
system.l2cache.demandMshrMissRate::total     0.433399                       # mshr miss ratio for demand accesses (Ratio)
system.l2cache.overallMshrMissRate::cpu.inst     0.955343                       # mshr miss ratio for overall accesses (Ratio)
system.l2cache.overallMshrMissRate::cpu.data     0.433384                       # mshr miss ratio for overall accesses (Ratio)
system.l2cache.overallMshrMissRate::total     0.433399                       # mshr miss ratio for overall accesses (Ratio)
system.l2cache.demandAvgMshrMissLatency::cpu.inst 80481.101836                       # average overall mshr miss latency ((Tick/Count))
system.l2cache.demandAvgMshrMissLatency::cpu.data 99554.287748                       # average overall mshr miss latency ((Tick/Count))
system.l2cache.demandAvgMshrMissLatency::total 99553.089837                       # average overall mshr miss latency ((Tick/Count))
system.l2cache.overallAvgMshrMissLatency::cpu.inst 80481.101836                       # average overall mshr miss latency ((Tick/Count))
system.l2cache.overallAvgMshrMissLatency::cpu.data 99554.287748                       # average overall mshr miss latency ((Tick/Count))
system.l2cache.overallAvgMshrMissLatency::total 99553.089837                       # average overall mshr miss latency ((Tick/Count))
system.l2cache.replacements                   9504542                       # number of replacements (Count)
system.l2cache.CleanEvict.mshrMisses::writebacks          149                       # number of CleanEvict MSHR misses (Count)
system.l2cache.CleanEvict.mshrMisses::total          149                       # number of CleanEvict MSHR misses (Count)
system.l2cache.CleanEvict.mshrMissRate::writebacks          inf                       # mshr miss rate for CleanEvict accesses (Ratio)
system.l2cache.CleanEvict.mshrMissRate::total          inf                       # mshr miss rate for CleanEvict accesses (Ratio)
system.l2cache.ReadExReq.hits::cpu.data       2482099                       # number of ReadExReq hits (Count)
system.l2cache.ReadExReq.hits::total          2482099                       # number of ReadExReq hits (Count)
system.l2cache.ReadExReq.misses::cpu.data      5083098                       # number of ReadExReq misses (Count)
system.l2cache.ReadExReq.misses::total        5083098                       # number of ReadExReq misses (Count)
system.l2cache.ReadExReq.missLatency::cpu.data 567700874840                       # number of ReadExReq miss ticks (Tick)
system.l2cache.ReadExReq.missLatency::total 567700874840                       # number of ReadExReq miss ticks (Tick)
system.l2cache.ReadExReq.accesses::cpu.data      7565197                       # number of ReadExReq accesses(hits+misses) (Count)
system.l2cache.ReadExReq.accesses::total      7565197                       # number of ReadExReq accesses(hits+misses) (Count)
system.l2cache.ReadExReq.missRate::cpu.data     0.671906                       # miss rate for ReadExReq accesses (Ratio)
system.l2cache.ReadExReq.missRate::total     0.671906                       # miss rate for ReadExReq accesses (Ratio)
system.l2cache.ReadExReq.avgMissLatency::cpu.data 111684.031046                       # average ReadExReq miss latency ((Tick/Count))
system.l2cache.ReadExReq.avgMissLatency::total 111684.031046                       # average ReadExReq miss latency ((Tick/Count))
system.l2cache.ReadExReq.mshrMisses::cpu.data      5083098                       # number of ReadExReq MSHR misses (Count)
system.l2cache.ReadExReq.mshrMisses::total      5083098                       # number of ReadExReq MSHR misses (Count)
system.l2cache.ReadExReq.mshrMissLatency::cpu.data 516869894840                       # number of ReadExReq MSHR miss ticks (Tick)
system.l2cache.ReadExReq.mshrMissLatency::total 516869894840                       # number of ReadExReq MSHR miss ticks (Tick)
system.l2cache.ReadExReq.mshrMissRate::cpu.data     0.671906                       # mshr miss rate for ReadExReq accesses (Ratio)
system.l2cache.ReadExReq.mshrMissRate::total     0.671906                       # mshr miss rate for ReadExReq accesses (Ratio)
system.l2cache.ReadExReq.avgMshrMissLatency::cpu.data 101684.031046                       # average ReadExReq mshr miss latency ((Tick/Count))
system.l2cache.ReadExReq.avgMshrMissLatency::total 101684.031046                       # average ReadExReq mshr miss latency ((Tick/Count))
system.l2cache.ReadSharedReq.hits::cpu.inst           28                       # number of ReadSharedReq hits (Count)
system.l2cache.ReadSharedReq.hits::cpu.data      9986393                       # number of ReadSharedReq hits (Count)
system.l2cache.ReadSharedReq.hits::total      9986421                       # number of ReadSharedReq hits (Count)
system.l2cache.ReadSharedReq.misses::cpu.inst          599                       # number of ReadSharedReq misses (Count)
system.l2cache.ReadSharedReq.misses::cpu.data      4453601                       # number of ReadSharedReq misses (Count)
system.l2cache.ReadSharedReq.misses::total      4454200                       # number of ReadSharedReq misses (Count)
system.l2cache.ReadSharedReq.missLatency::cpu.inst     54198180                       # number of ReadSharedReq miss ticks (Tick)
system.l2cache.ReadSharedReq.missLatency::cpu.data 477085391572                       # number of ReadSharedReq miss ticks (Tick)
system.l2cache.ReadSharedReq.missLatency::total 477139589752                       # number of ReadSharedReq miss ticks (Tick)
system.l2cache.ReadSharedReq.accesses::cpu.inst          627                       # number of ReadSharedReq accesses(hits+misses) (Count)
system.l2cache.ReadSharedReq.accesses::cpu.data     14439994                       # number of ReadSharedReq accesses(hits+misses) (Count)
system.l2cache.ReadSharedReq.accesses::total     14440621                       # number of ReadSharedReq accesses(hits+misses) (Count)
system.l2cache.ReadSharedReq.missRate::cpu.inst     0.955343                       # miss rate for ReadSharedReq accesses (Ratio)
system.l2cache.ReadSharedReq.missRate::cpu.data     0.308421                       # miss rate for ReadSharedReq accesses (Ratio)
system.l2cache.ReadSharedReq.missRate::total     0.308449                       # miss rate for ReadSharedReq accesses (Ratio)
system.l2cache.ReadSharedReq.avgMissLatency::cpu.inst 90481.101836                       # average ReadSharedReq miss latency ((Tick/Count))
system.l2cache.ReadSharedReq.avgMissLatency::cpu.data 107123.514561                       # average ReadSharedReq miss latency ((Tick/Count))
system.l2cache.ReadSharedReq.avgMissLatency::total 107121.276492                       # average ReadSharedReq miss latency ((Tick/Count))
system.l2cache.ReadSharedReq.mshrMisses::cpu.inst          599                       # number of ReadSharedReq MSHR misses (Count)
system.l2cache.ReadSharedReq.mshrMisses::cpu.data      4453601                       # number of ReadSharedReq MSHR misses (Count)
system.l2cache.ReadSharedReq.mshrMisses::total      4454200                       # number of ReadSharedReq MSHR misses (Count)
system.l2cache.ReadSharedReq.mshrMissLatency::cpu.inst     48208180                       # number of ReadSharedReq MSHR miss ticks (Tick)
system.l2cache.ReadSharedReq.mshrMissLatency::cpu.data 432549381572                       # number of ReadSharedReq MSHR miss ticks (Tick)
system.l2cache.ReadSharedReq.mshrMissLatency::total 432597589752                       # number of ReadSharedReq MSHR miss ticks (Tick)
system.l2cache.ReadSharedReq.mshrMissRate::cpu.inst     0.955343                       # mshr miss rate for ReadSharedReq accesses (Ratio)
system.l2cache.ReadSharedReq.mshrMissRate::cpu.data     0.308421                       # mshr miss rate for ReadSharedReq accesses (Ratio)
system.l2cache.ReadSharedReq.mshrMissRate::total     0.308449                       # mshr miss rate for ReadSharedReq accesses (Ratio)
system.l2cache.ReadSharedReq.avgMshrMissLatency::cpu.inst 80481.101836                       # average ReadSharedReq mshr miss latency ((Tick/Count))
system.l2cache.ReadSharedReq.avgMshrMissLatency::cpu.data 97123.514561                       # average ReadSharedReq mshr miss latency ((Tick/Count))
system.l2cache.ReadSharedReq.avgMshrMissLatency::total 97121.276492                       # average ReadSharedReq mshr miss latency ((Tick/Count))
system.l2cache.WritebackDirty.hits::writebacks     10444250                       # number of WritebackDirty hits (Count)
system.l2cache.WritebackDirty.hits::total     10444250                       # number of WritebackDirty hits (Count)
system.l2cache.WritebackDirty.accesses::writebacks     10444250                       # number of WritebackDirty accesses(hits+misses) (Count)
system.l2cache.WritebackDirty.accesses::total     10444250                       # number of WritebackDirty accesses(hits+misses) (Count)
system.l2cache.power_state.pwrStateResidencyTicks::UNDEFINED 2783974822316                       # Cumulative time (in ticks) in various power states (Tick)
system.l2cache.tags.tagsInUse            31613.900991                       # Average ticks per tags in use ((Tick/Count))
system.l2cache.tags.totalRefs                44006813                       # Total number of references to valid blocks. (Count)
system.l2cache.tags.sampledRefs               9537310                       # Sample count of references to valid blocks. (Count)
system.l2cache.tags.avgRefs                  4.614175                       # Average number of references to valid blocks. ((Count/Count))
system.l2cache.tags.warmupTick                  85500                       # The tick when the warmup percentage was hit. (Tick)
[...]
system.mem_ctrl.wrPerTurnAround::19               829      0.13%     99.97% # Writes before turning the bus around for reads (Count)
system.mem_ctrl.wrPerTurnAround::20               164      0.03%    100.00% # Writes before turning the bus around for reads (Count)
system.mem_ctrl.wrPerTurnAround::21                 3      0.00%    100.00% # Writes before turning the bus around for reads (Count)
system.mem_ctrl.wrPerTurnAround::total         645840                       # Writes before turning the bus around for reads (Count)
system.mem_ctrl.bytesReadWrQ                    40640                       # Total number of bytes read from write queue (Byte)
system.mem_ctrl.bytesReadSys                610387072                       # Total read bytes from the system interface side (Byte)
system.mem_ctrl.bytesWrittenSys             333921344                       # Total written bytes from the system interface side (Byte)
system.mem_ctrl.avgRdBWSys               219250212.72003335                       # Average system read bandwidth in Byte/s ((Byte/Second))
system.mem_ctrl.avgWrBWSys               119944096.23367552                       # Average system write bandwidth in Byte/s ((Byte/Second))
system.mem_ctrl.totGap                   2783653038612                       # Total gap between requests (Tick)
system.mem_ctrl.avgGap                      188660.60                       # Average gap between requests ((Tick/Count))
system.mem_ctrl.requestorReadBytes::cpu.inst        38336                       # Per-requestor bytes read from memory (Byte)
system.mem_ctrl.requestorReadBytes::cpu.data    610308096                       # Per-requestor bytes read from memory (Byte)
system.mem_ctrl.requestorWriteBytes::writebacks    333920736                       # Per-requestor bytes write to memory (Byte)
system.mem_ctrl.requestorReadRate::cpu.inst 13770.239476558243                       # Per-requestor bytes read from memory rate ((Byte/Second))
system.mem_ctrl.requestorReadRate::cpu.data 219221844.647388815880                       # Per-requestor bytes read from memory rate ((Byte/Second))
system.mem_ctrl.requestorWriteRate::writebacks 119943877.840895846486                       # Per-requestor bytes write to memory rate ((Byte/Second))
system.mem_ctrl.requestorReadAccesses::cpu.inst         1198                       # Per-requestor read serviced memory accesses (Count)
system.mem_ctrl.requestorReadAccesses::cpu.data     19073398                       # Per-requestor read serviced memory accesses (Count)
system.mem_ctrl.requestorWriteAccesses::writebacks     10435042                       # Per-requestor write serviced memory accesses (Count)
system.mem_ctrl.requestorReadTotalLat::cpu.inst     48489068                       # Per-requestor read total memory access latency (Tick)
system.mem_ctrl.requestorReadTotalLat::cpu.data 1131595193324                       # Per-requestor read total memory access latency (Tick)
system.mem_ctrl.requestorWriteTotalLat::writebacks 66573203240616                       # Per-requestor write total memory access latency (Tick)
system.mem_ctrl.requestorReadAvgLat::cpu.inst     40475.02                       # Per-requestor read average memory access latency ((Tick/Count))
system.mem_ctrl.requestorReadAvgLat::cpu.data     59328.45                       # Per-requestor read average memory access latency ((Tick/Count))
system.mem_ctrl.requestorWriteAvgLat::writebacks   6379773.39                       # Per-requestor write average memory access latency ((Tick/Count))
system.mem_ctrl.dram.bytesRead::cpu.inst        38336                       # Number of bytes read from this memory (Byte)
system.mem_ctrl.dram.bytesRead::cpu.data    610348736                       # Number of bytes read from this memory (Byte)
system.mem_ctrl.dram.bytesRead::total       610387072                       # Number of bytes read from this memory (Byte)
system.mem_ctrl.dram.bytesInstRead::cpu.inst        38336                       # Number of instructions bytes read from this memory (Byte)
system.mem_ctrl.dram.bytesInstRead::total        38336                       # Number of instructions bytes read from this memory (Byte)
system.mem_ctrl.dram.bytesWritten::writebacks    333921344                       # Number of bytes written to this memory (Byte)
system.mem_ctrl.dram.bytesWritten::total    333921344                       # Number of bytes written to this memory (Byte)
system.mem_ctrl.dram.numReads::cpu.inst           599                       # Number of read requests responded to by this memory (Count)
system.mem_ctrl.dram.numReads::cpu.data       9536699                       # Number of read requests responded to by this memory (Count)
system.mem_ctrl.dram.numReads::total          9537298                       # Number of read requests responded to by this memory (Count)
system.mem_ctrl.dram.numWrites::writebacks      5217521                       # Number of write requests responded to by this memory (Count)
system.mem_ctrl.dram.numWrites::total         5217521                       # Number of write requests responded to by this memory (Count)
system.mem_ctrl.dram.bwRead::cpu.inst           13770                       # Total read bandwidth from this memory ((Byte/Second))
system.mem_ctrl.dram.bwRead::cpu.data       219236442                       # Total read bandwidth from this memory ((Byte/Second))
system.mem_ctrl.dram.bwRead::total          219250213                       # Total read bandwidth from this memory ((Byte/Second))
system.mem_ctrl.dram.bwInstRead::cpu.inst        13770                       # Instruction read bandwidth from this memory ((Byte/Second))
system.mem_ctrl.dram.bwInstRead::total          13770                       # Instruction read bandwidth from this memory ((Byte/Second))
system.mem_ctrl.dram.bwWrite::writebacks    119944096                       # Write bandwidth from this memory ((Byte/Second))
system.mem_ctrl.dram.bwWrite::total         119944096                       # Write bandwidth from this memory ((Byte/Second))
system.mem_ctrl.dram.bwTotal::writebacks    119944096                       # Total bandwidth to/from this memory ((Byte/Second))
system.mem_ctrl.dram.bwTotal::cpu.inst          13770                       # Total bandwidth to/from this memory ((Byte/Second))
system.mem_ctrl.dram.bwTotal::cpu.data      219236442                       # Total bandwidth to/from this memory ((Byte/Second))
system.mem_ctrl.dram.bwTotal::total         339194309                       # Total bandwidth to/from this memory ((Byte/Second))
system.mem_ctrl.dram.readBursts              19073326                       # Number of DRAM read bursts (Count)
system.mem_ctrl.dram.writeBursts             10435023                       # Number of DRAM write bursts (Count)
system.mem_ctrl.dram.perBankRdBursts::0       2381688                       # Per bank write bursts (Count)
system.mem_ctrl.dram.perBankRdBursts::1       2380911                       # Per bank write bursts (Count)
system.mem_ctrl.dram.perBankRdBursts::2       2380676                       # Per bank write bursts (Count)
system.mem_ctrl.dram.perBankRdBursts::3       2380614                       # Per bank write bursts (Count)
system.mem_ctrl.dram.perBankRdBursts::4       2387766                       # Per bank write bursts (Count)
system.mem_ctrl.dram.perBankRdBursts::5       2387388                       # Per bank write bursts (Count)
system.mem_ctrl.dram.perBankRdBursts::6       2386943                       # Per bank write bursts (Count)
system.mem_ctrl.dram.perBankRdBursts::7       2387340                       # Per bank write bursts (Count)
system.mem_ctrl.dram.perBankWrBursts::0       1304563                       # Per bank write bursts (Count)
system.mem_ctrl.dram.perBankWrBursts::1       1303978                       # Per bank write bursts (Count)
system.mem_ctrl.dram.perBankWrBursts::2       1303786                       # Per bank write bursts (Count)
system.mem_ctrl.dram.perBankWrBursts::3       1303490                       # Per bank write bursts (Count)
system.mem_ctrl.dram.perBankWrBursts::4       1304602                       # Per bank write bursts (Count)
system.mem_ctrl.dram.perBankWrBursts::5       1304766                       # Per bank write bursts (Count)
system.mem_ctrl.dram.perBankWrBursts::6       1304664                       # Per bank write bursts (Count)
system.mem_ctrl.dram.perBankWrBursts::7       1305174                       # Per bank write bursts (Count)
system.mem_ctrl.dram.totQLat             702493847392                       # Total ticks spent queuing (Tick)
system.mem_ctrl.dram.totBusLat           143049945000                       # Total ticks spent in databus transfers (Tick)
system.mem_ctrl.dram.totMemAccLat        1131643682392                       # Total ticks spent from burst creation until serviced by the DRAM (Tick)
system.mem_ctrl.dram.avgQLat                 36831.22                       # Average queueing delay per DRAM burst ((Tick/Count))
system.mem_ctrl.dram.avgBusLat                7500.00                       # Average bus latency per DRAM burst ((Tick/Count))
system.mem_ctrl.dram.avgMemAccLat            59331.22                       # Average memory access latency per DRAM burst ((Tick/Count))
system.mem_ctrl.dram.readRowHits             13958328                       # Number of row buffer hits during reads (Count)
system.mem_ctrl.dram.writeRowHits             8433434                       # Number of row buffer hits during writes (Count)
system.mem_ctrl.dram.readRowHitRate             73.18                       # Row buffer hit rate for reads (Ratio)
system.mem_ctrl.dram.writeRowHitRate            80.82                       # Row buffer hit rate for writes (Ratio)
system.mem_ctrl.dram.bytesPerActivate::samples      7116587                       # Bytes accessed per row activation (Byte)
system.mem_ctrl.dram.bytesPerActivate::mean   132.685397                       # Bytes accessed per row activation (Byte)
system.mem_ctrl.dram.bytesPerActivate::gmean    93.642401                       # Bytes accessed per row activation (Byte)
system.mem_ctrl.dram.bytesPerActivate::stdev   141.501819                       # Bytes accessed per row activation (Byte)
system.mem_ctrl.dram.bytesPerActivate::0-63       102549      1.44%      1.44% # Bytes accessed per row activation (Byte)
system.mem_ctrl.dram.bytesPerActivate::64-127      5195590     73.01%     74.45% # Bytes accessed per row activation (Byte)
system.mem_ctrl.dram.bytesPerActivate::128-191       384313      5.40%     79.85% # Bytes accessed per row activation (Byte)
system.mem_ctrl.dram.bytesPerActivate::192-255       250931      3.53%     83.37% # Bytes accessed per row activation (Byte)
system.mem_ctrl.dram.bytesPerActivate::256-319       135213      1.90%     85.27% # Bytes accessed per row activation (Byte)
system.mem_ctrl.dram.bytesPerActivate::320-383       230920      3.24%     88.52% # Bytes accessed per row activation (Byte)
system.mem_ctrl.dram.bytesPerActivate::384-447       111447      1.57%     90.08% # Bytes accessed per row activation (Byte)
system.mem_ctrl.dram.bytesPerActivate::448-511        77060      1.08%     91.17% # Bytes accessed per row activation (Byte)
system.mem_ctrl.dram.bytesPerActivate::512-575       628564      8.83%    100.00% # Bytes accessed per row activation (Byte)
system.mem_ctrl.dram.bytesPerActivate::total      7116587                       # Bytes accessed per row activation (Byte)
system.mem_ctrl.dram.bytesRead              610346432                       # Total bytes read (Byte)
system.mem_ctrl.dram.bytesWritten           333920736                       # Total bytes written (Byte)
system.mem_ctrl.dram.avgRdBW               219.235615                       # Average DRAM read bandwidth in MiBytes/s ((Byte/Second))
system.mem_ctrl.dram.avgWrBW               119.943878                       # Average DRAM write bandwidth in MiBytes/s ((Byte/Second))
system.mem_ctrl.dram.peakBW                   4266.00                       # Theoretical peak bandwidth in MiByte/s ((Byte/Second))
system.mem_ctrl.dram.busUtil                     7.95                       # Data bus utilization in percentage (Ratio)
system.mem_ctrl.dram.busUtilRead                 5.14                       # Data bus utilization in percentage for reads (Ratio)
system.mem_ctrl.dram.busUtilWrite                2.81                       # Data bus utilization in percentage for writes (Ratio)
system.mem_ctrl.dram.pageHitRate                75.88                       # Row buffer hit rate, read and write combined (Ratio)
system.mem_ctrl.dram.power_state.pwrStateResidencyTicks::UNDEFINED 2783974822316                       # Cumulative time (in ticks) in various power states (Tick)
system.mem_ctrl.dram.rank0.actEnergy     21648187959.136997                       # Energy for activate commands per rank (pJ) (Joule)
system.mem_ctrl.dram.rank0.preEnergy     7625929671.524883                       # Energy for precharge commands per rank (pJ) (Joule)
system.mem_ctrl.dram.rank0.readEnergy    32761595947.708847                       # Energy for read commands per rank (pJ) (Joule)
system.mem_ctrl.dram.rank0.writeEnergy   16091556787.620951                       # Energy for write commands per rank (pJ) (Joule)
system.mem_ctrl.dram.rank0.refreshEnergy 19902838517.259907                       # Energy for refresh commands per rank (pJ) (Joule)
system.mem_ctrl.dram.rank0.actBackEnergy 49929835821.970627                       # Energy for active background per rank (pJ) (Joule)
system.mem_ctrl.dram.rank0.preBackEnergy 61425119060.591469                       # Energy for precharge background per rank (pJ) (Joule)
system.mem_ctrl.dram.rank0.actPowerDownEnergy            0                       # Energy for active power-down per rank (pJ) (Joule)
system.mem_ctrl.dram.rank0.prePowerDownEnergy            0                       # Energy for precharge power-down per rank (pJ) (Joule)
system.mem_ctrl.dram.rank0.selfRefreshEnergy            0                       # Energy for self refresh per rank (pJ) (Joule)
system.mem_ctrl.dram.rank0.totalEnergy   209385063767.406128                       # Total energy per rank (pJ) (Joule)
system.mem_ctrl.dram.rank0.averagePower     75.210832                       # Core power per rank (mW) (Watt)
system.mem_ctrl.dram.rank0.totalIdleTime            0                       # Total Idle time Per DRAM Rank (Tick)
system.mem_ctrl.dram.rank0.pwrStateTime::IDLE 1521926119748                       # Time in different power states (Tick)
system.mem_ctrl.dram.rank0.pwrStateTime::REF  93157350000                       # Time in different power states (Tick)
system.mem_ctrl.dram.rank0.pwrStateTime::SREF            0                       # Time in different power states (Tick)
system.mem_ctrl.dram.rank0.pwrStateTime::PRE_PDN            0                       # Time in different power states (Tick)
system.mem_ctrl.dram.rank0.pwrStateTime::ACT 1168891352568                       # Time in different power states (Tick)
system.mem_ctrl.dram.rank0.pwrStateTime::ACT_PDN            0                       # Time in different power states (Tick)
system.mem_ctrl.power_state.pwrStateResidencyTicks::UNDEFINED 2783974822316                       # Cumulative time (in ticks) in various power states (Tick)
system.membus.transDist::ReadResp             4454200                       # Transaction distribution (Count)
system.membus.transDist::WritebackDirty       5217521                       # Transaction distribution (Count)
system.membus.transDist::CleanEvict           4286522                       # Transaction distribution (Count)
system.membus.transDist::ReadExReq            5083098                       # Transaction distribution (Count)
system.membus.transDist::ReadExResp           5083098                       # Transaction distribution (Count)
system.membus.transDist::ReadSharedReq        4454200                       # Transaction distribution (Count)
system.membus.pktCount_system.l2cache.mem_side_port::system.mem_ctrl.port     28578639                       # Packet count per connected requestor and responder (Count)
system.membus.pktCount::total                28578639                       # Packet count per connected requestor and responder (Count)
system.membus.pktSize_system.l2cache.mem_side_port::system.mem_ctrl.port    944308416                       # Cumulative packet size per connected requestor and responder (Byte)
system.membus.pktSize::total                944308416                       # Cumulative packet size per connected requestor and responder (Byte)
system.membus.snoops                                0                       # Total snoops (Count)
system.membus.snoopTraffic                          0                       # Total snoop traffic (Byte)
system.membus.snoopFanout::samples            9537298                       # Request fanout histogram (Count)
system.membus.snoopFanout::mean                     0                       # Request fanout histogram (Count)
system.membus.snoopFanout::stdev                    0                       # Request fanout histogram (Count)
system.membus.snoopFanout::underflows               0      0.00%      0.00% # Request fanout histogram (Count)
system.membus.snoopFanout::0                  9537298    100.00%    100.00% # Request fanout histogram (Count)
system.membus.snoopFanout::1                        0      0.00%    100.00% # Request fanout histogram (Count)
system.membus.snoopFanout::overflows                0      0.00%    100.00% # Request fanout histogram (Count)
system.membus.snoopFanout::min_value                0                       # Request fanout histogram (Count)
system.membus.snoopFanout::max_value                0                       # Request fanout histogram (Count)
system.membus.snoopFanout::total              9537298                       # Request fanout histogram (Count)
system.membus.power_state.pwrStateResidencyTicks::UNDEFINED 2783974822316                       # Cumulative time (in ticks) in various power states (Tick)
system.membus.reqLayer0.occupancy         22163940568                       # Layer occupancy (ticks) (Tick)
system.membus.reqLayer0.utilization               0.0                       # Layer utilization (Ratio)
system.membus.respLayer0.occupancy        24605405092                       # Layer occupancy (ticks) (Tick)
system.membus.respLayer0.utilization              0.0                       # Layer utilization (Ratio)
system.membus.snoop_filter.totRequests       19041341                       # Total number of requests made to the snoop filter. (Count)
system.membus.snoop_filter.hitSingleRequests      9504081                       # Number of requests hitting in the snoop filter with a single holder of the requested data. (Count)
system.membus.snoop_filter.hitMultiRequests            0                       # Number of requests hitting in the snoop filter with multiple (>1) holders of the requested data. (Count)
system.membus.snoop_filter.totSnoops                0                       # Total number of snoops made to the snoop filter. (Count)
system.membus.snoop_filter.hitSingleSnoops            0                       # Number of snoops hitting in the snoop filter with a single holder of the requested data. (Count)
system.membus.snoop_filter.hitMultiSnoops            0                       # Number of snoops hitting in the snoop filter with multiple (>1) holders of the requested data. (Count)
system.workload.inst.arm                            0                       # number of arm instructions executed (Count)
system.workload.inst.quiesce                        0                       # number of quiesce instructions executed (Count)

---------- End Simulation Statistics   ----------
