
---------- Begin Simulation Statistics ----------
simSeconds                                   2.728630                       # Number of seconds simulated (Second)
simTicks                                 2728630069704                       # Number of ticks simulated (Tick)
finalTick                                2728630069704                       # Number of ticks from beginning of simulation (restored from checkpoints and never reset) (Tick)
simFreq                                  1000000000000                       # The number of ticks per simulated second ((Tick/Second))
hostSeconds                                   3981.49                       # Real time elapsed on the host (Second)
hostTickRate                                685329704                       # The number of ticks simulated per host second (ticks/s) ((Tick/Second))
hostMemory                                    2287744                       # Number of bytes of host memory used (Byte)
simInsts                                   1000000000                       # Number of instructions simulated (Count)
simOps                                     1084388561                       # Number of ops (including micro ops) simulated (Count)
hostInstRate                                   251163                       # Simulator instruction rate (inst/s) ((Count/Second))
hostOpRate                                     272358                       # Simulator op (including micro ops) rate (op/s) ((Count/Second))
system.clk_domain.clock                           500                       # Clock period in ticks (Tick)
system.clk_domain.voltage_domain.voltage            1                       # Voltage in Volts (Volt)
system.cpu.numCycles                        818670889                       # Number of cpu cycles simulated (Cycle)
system.cpu.numWorkItemsStarted                      0                       # Number of work items this cpu started (Count)
system.cpu.numWorkItemsCompleted                    0                       # Number of work items this cpu completed (Count)
system.cpu.instsAdded                      1387275436                       # Number of instructions added to the IQ (excludes non-spec) (Count)
system.cpu.nonSpecInstsAdded                  3794899                       # Number of non-speculative instructions added to the IQ (Count)
system.cpu.instsIssued                     1301920112                       # Number of instructions issued (Count)
system.cpu.squashedInstsIssued                4900361                       # Number of squashed instructions issued (Count)
system.cpu.squashedInstsExamined            306681708                       # Number of squashed instructions iterated over during squash; mainly for profiling (Count)
system.cpu.squashedOperandsExamined         716448953                       # Number of squashed operands that are examined and possibly removed from graph (Count)
system.cpu.squashedNonSpecRemoved                5459                       # Number of squashed non-spec instructions that were removed (Count)
system.cpu.numIssuedDist::samples           818669158                       # Number of insts issued each cycle (Count)
system.cpu.numIssuedDist::mean               1.590288                       # Number of insts issued each cycle (Count)
system.cpu.numIssuedDist::stdev              2.043693                       # Number of insts issued each cycle (Count)
system.cpu.numIssuedDist::underflows                0      0.00%      0.00% # Number of insts issued each cycle (Count)
system.cpu.numIssuedDist::0                 391622279     47.84%     47.84% # Number of insts issued each cycle (Count)
system.cpu.numIssuedDist::1                 116190232     14.19%     62.03% # Number of insts issued each cycle (Count)
system.cpu.numIssuedDist::2                  84648266     10.34%     72.37% # Number of insts issued each cycle (Count)
system.cpu.numIssuedDist::3                  72789237      8.89%     81.26% # Number of insts issued each cycle (Count)
system.cpu.numIssuedDist::4                  57274006      7.00%     88.26% # Number of insts issued each cycle (Count)
system.cpu.numIssuedDist::5                  42734087      5.22%     93.48% # Number of insts issued each cycle (Count)
system.cpu.numIssuedDist::6                  28327718      3.46%     96.94% # Number of insts issued each cycle (Count)
system.cpu.numIssuedDist::7                  15333794      1.87%     98.81% # Number of insts issued each cycle (Count)
system.cpu.numIssuedDist::8                   9749539      1.19%    100.00% # Number of insts issued each cycle (Count)
system.cpu.numIssuedDist::overflows                 0      0.00%    100.00% # Number of insts issued each cycle (Count)
system.cpu.numIssuedDist::min_value                 0                       # Number of insts issued each cycle (Count)
system.cpu.numIssuedDist::max_value                 8                       # Number of insts issued each cycle (Count)
system.cpu.numIssuedDist::total             818669158                       # Number of insts issued each cycle (Count)
system.cpu.statFuBusy::No_OpClass                   0      0.00%      0.00% # attempts to use FU when none available (Count)
system.cpu.statFuBusy::IntAlu                 1030578      3.39%      3.39% # attempts to use FU when none available (Count)
system.cpu.statFuBusy::IntMult                      0      0.00%      3.39% # attempts to use FU when none available (Count)
system.cpu.statFuBusy::IntDiv                       0      0.00%      3.39% # attempts to use FU when none available (Count)
system.cpu.statFuBusy::FloatAdd                     0      0.00%      3.39% # attempts to use FU when none available (Count)
system.cpu.statFuBusy::FloatCmp                     0      0.00%      3.39% # attempts to use FU when none available (Count)
system.cpu.statFuBusy::FloatCvt                     0      0.00%      3.39% # attempts to use FU when none available (Count)
system.cpu.statFuBusy::FloatMult                    0      0.00%      3.39% # attempts to use FU when none available (Count)
system.cpu.statFuBusy::FloatMultAcc                 0      0.00%      3.39% # attempts to use FU when none available (Count)
system.cpu.statFuBusy::FloatDiv                     0      0.00%      3.39% # attempts to use FU when none available (Count)
system.cpu.statFuBusy::FloatMisc                    0      0.00%      3.39% # attempts to use FU when none available (Count)
system.cpu.statFuBusy::FloatSqrt                    0      0.00%      3.39% # attempts to use FU when none available (Count)
system.cpu.statFuBusy::SimdAdd                      0      0.00%      3.39% # attempts to use FU when none available (Count)
system.cpu.statFuBusy::SimdAddAcc                   0      0.00%      3.39% # attempts to use FU when none available (Count)
system.cpu.statFuBusy::SimdAlu                      0      0.00%      3.39% # attempts to use FU when none available (Count)
system.cpu.statFuBusy::SimdCmp                      0      0.00%      3.39% # attempts to use FU when none available (Count)
system.cpu.statFuBusy::SimdCvt                      0      0.00%      3.39% # attempts to use FU when none available (Count)
system.cpu.statFuBusy::SimdMisc                     0      0.00%      3.39% # attempts to use FU when none available (Count)
system.cpu.statFuBusy::SimdMult                     0      0.00%      3.39% # attempts to use FU when none available (Count)
system.cpu.statFuBusy::SimdMultAcc                  0      0.00%      3.39% # attempts to use FU when none available (Count)
system.cpu.statFuBusy::SimdShift                    0      0.00%      3.39% # attempts to use FU when none available (Count)
system.cpu.statFuBusy::SimdShiftAcc                 0      0.00%      3.39% # attempts to use FU when none available (Count)
system.cpu.statFuBusy::SimdDiv                      0      0.00%      3.39% # attempts to use FU when none available (Count)
system.cpu.statFuBusy::SimdSqrt                     0      0.00%      3.39% # attempts to use FU when none available (Count)
system.cpu.statFuBusy::SimdFloatAdd                 0      0.00%      3.39% # attempts to use FU when none available (Count)
system.cpu.statFuBusy::SimdFloatAlu                 0      0.00%      3.39% # attempts to use FU when none available (Count)
system.cpu.statFuBusy::SimdFloatCmp                 0      0.00%      3.39% # attempts to use FU when none available (Count)
system.cpu.statFuBusy::SimdFloatCvt                 0      0.00%      3.39% # attempts to use FU when none available (Count)
system.cpu.statFuBusy::SimdFloatDiv                 0      0.00%      3.39% # attempts to use FU when none available (Count)
system.cpu.statFuBusy::SimdFloatMisc                0      0.00%      3.39% # attempts to use FU when none available (Count)
system.cpu.statFuBusy::SimdFloatMult                0      0.00%      3.39% # attempts to use FU when none available (Count)
system.cpu.statFuBusy::SimdFloatMultAcc             0      0.00%      3.39% # attempts to use FU when none available (Count)
system.cpu.statFuBusy::SimdFloatSqrt                0      0.00%      3.39% # attempts to use FU when none available (Count)
system.cpu.statFuBusy::SimdReduceAdd                0      0.00%      3.39% # attempts to use FU when none available (Count)
system.cpu.statFuBusy::SimdReduceAlu                0      0.00%      3.39% # attempts to use FU when none available (Count)
system.cpu.statFuBusy::SimdReduceCmp                0      0.00%      3.39% # attempts to use FU when none available (Count)
system.cpu.statFuBusy::SimdFloatReduceAdd            0      0.00%      3.39% # attempts to use FU when none available (Count)
system.cpu.statFuBusy::SimdFloatReduceCmp            0      0.00%      3.39% # attempts to use FU when none available (Count)
system.cpu.statFuBusy::SimdAes                      0      0.00%      3.39% # attempts to use FU when none available (Count)
system.cpu.statFuBusy::SimdAesMix                   0      0.00%      3.39% # attempts to use FU when none available (Count)
system.cpu.statFuBusy::SimdSha1Hash                 0      0.00%      3.39% # attempts to use FU when none available (Count)
system.cpu.statFuBusy::SimdSha1Hash2                0      0.00%      3.39% # attempts to use FU when none available (Count)
system.cpu.statFuBusy::SimdSha256Hash               0      0.00%      3.39% # attempts to use FU when none available (Count)
system.cpu.statFuBusy::SimdSha256Hash2              0      0.00%      3.39% # attempts to use FU when none available (Count)
system.cpu.statFuBusy::SimdShaSigma2                0      0.00%      3.39% # attempts to use FU when none available (Count)
system.cpu.statFuBusy::SimdShaSigma3                0      0.00%      3.39% # attempts to use FU when none available (Count)
system.cpu.statFuBusy::SimdPredAlu                  0      0.00%      3.39% # attempts to use FU when none available (Count)
system.cpu.statFuBusy::MemRead               16854552     55.41%     58.80% # attempts to use FU when none available (Count)
system.cpu.statFuBusy::MemWrite              12531235     41.20%    100.00% # attempts to use FU when none available (Count)
system.cpu.statFuBusy::FloatMemRead                 0      0.00%    100.00% # attempts to use FU when none available (Count)
system.cpu.statFuBusy::FloatMemWrite                0      0.00%    100.00% # attempts to use FU when none available (Count)
system.cpu.statFuBusy::IprAccess                    0      0.00%    100.00% # attempts to use FU when none available (Count)
system.cpu.statFuBusy::InstPrefetch                 0      0.00%    100.00% # attempts to use FU when none available (Count)
system.cpu.statIssuedInstType_0::No_OpClass            2      0.00%      0.00% # Number of instructions issued per FU type, per thread (Count)
system.cpu.statIssuedInstType_0::IntAlu     815176223     62.61%     62.61% # Number of instructions issued per FU type, per thread (Count)
system.cpu.statIssuedInstType_0::IntMult      2714391      0.21%     62.82% # Number of instructions issued per FU type, per thread (Count)
system.cpu.statIssuedInstType_0::IntDiv             0      0.00%     62.82% # Number of instructions issued per FU type, per thread (Count)
system.cpu.statIssuedInstType_0::FloatAdd            0      0.00%     62.82% # Number of instructions issued per FU type, per thread (Count)
system.cpu.statIssuedInstType_0::FloatCmp            0      0.00%     62.82% # Number of instructions issued per FU type, per thread (Count)
system.cpu.statIssuedInstType_0::FloatCvt            0      0.00%     62.82% # Number of instructions issued per FU type, per thread (Count)
system.cpu.statIssuedInstType_0::FloatMult            0      0.00%     62.82% # Number of instructions issued per FU type, per thread (Count)
system.cpu.statIssuedInstType_0::FloatMultAcc            0      0.00%     62.82% # Number of instructions issued per FU type, per thread (Count)
system.cpu.statIssuedInstType_0::FloatDiv            0      0.00%     62.82% # Number of instructions issued per FU type, per thread (Count)
system.cpu.statIssuedInstType_0::FloatMisc            0      0.00%     62.82% # Number of instructions issued per FU type, per thread (Count)
system.cpu.statIssuedInstType_0::FloatSqrt            0      0.00%     62.82% # Number of instructions issued per FU type, per thread (Count)
system.cpu.statIssuedInstType_0::SimdAdd            0      0.00%     62.82% # Number of instructions issued per FU type, per thread (Count)
system.cpu.statIssuedInstType_0::SimdAddAcc            0      0.00%     62.82% # Number of instructions issued per FU type, per thread (Count)
system.cpu.statIssuedInstType_0::SimdAlu            0      0.00%     62.82% # Number of instructions issued per FU type, per thread (Count)
system.cpu.statIssuedInstType_0::SimdCmp            0      0.00%     62.82% # Number of instructions issued per FU type, per thread (Count)
system.cpu.statIssuedInstType_0::SimdCvt            0      0.00%     62.82% # Number of instructions issued per FU type, per thread (Count)
system.cpu.statIssuedInstType_0::SimdMisc            0      0.00%     62.82% # Number of instructions issued per FU type, per thread (Count)
system.cpu.statIssuedInstType_0::SimdMult            0      0.00%     62.82% # Number of instructions issued per FU type, per thread (Count)
system.cpu.statIssuedInstType_0::SimdMultAcc            0      0.00%     62.82% # Number of instructions issued per FU type, per thread (Count)
system.cpu.statIssuedInstType_0::SimdShift            0      0.00%     62.82% # Number of instructions issued per FU type, per thread (Count)
system.cpu.statIssuedInstType_0::SimdShiftAcc            0      0.00%     62.82% # Number of instructions issued per FU type, per thread (Count)
system.cpu.statIssuedInstType_0::SimdDiv            0      0.00%     62.82% # Number of instructions issued per FU type, per thread (Count)
system.cpu.statIssuedInstType_0::SimdSqrt            0      0.00%     62.82% # Number of instructions issued per FU type, per thread (Count)
system.cpu.statIssuedInstType_0::SimdFloatAdd            0      0.00%     62.82% # Number of instructions issued per FU type, per thread (Count)
system.cpu.statIssuedInstType_0::SimdFloatAlu            0      0.00%     62.82% # Number of instructions issued per FU type, per thread (Count)
system.cpu.statIssuedInstType_0::SimdFloatCmp            0      0.00%     62.82% # Number of instructions issued per FU type, per thread (Count)
system.cpu.statIssuedInstType_0::SimdFloatCvt            0      0.00%     62.82% # Number of instructions issued per FU type, per thread (Count)
system.cpu.statIssuedInstType_0::SimdFloatDiv            0      0.00%     62.82% # Number of instructions issued per FU type, per thread (Count)
system.cpu.statIssuedInstType_0::SimdFloatMisc            3      0.00%     62.82% # Number of instructions issued per FU type, per thread (Count)
system.cpu.statIssuedInstType_0::SimdFloatMult            0      0.00%     62.82% # Number of instructions issued per FU type, per thread (Count)
system.cpu.statIssuedInstType_0::SimdFloatMultAcc            0      0.00%     62.82% # Number of instructions issued per FU type, per thread (Count)
system.cpu.statIssuedInstType_0::SimdFloatSqrt            0      0.00%     62.82% # Number of instructions issued per FU type, per thread (Count)
system.cpu.statIssuedInstType_0::SimdReduceAdd            0      0.00%     62.82% # Number of instructions issued per FU type, per thread (Count)
system.cpu.statIssuedInstType_0::SimdReduceAlu            0      0.00%     62.82% # Number of instructions issued per FU type, per thread (Count)
system.cpu.statIssuedInstType_0::SimdReduceCmp            0      0.00%     62.82% # Number of instructions issued per FU type, per thread (Count)
system.cpu.statIssuedInstType_0::SimdFloatReduceAdd            0      0.00%     62.82% # Number of instructions issued per FU type, per thread (Count)
system.cpu.statIssuedInstType_0::SimdFloatReduceCmp            0      0.00%     62.82% # Number of instructions issued per FU type, per thread (Count)
system.cpu.statIssuedInstType_0::SimdAes            0      0.00%     62.82% # Number of instructions issued per FU type, per thread (Count)
system.cpu.statIssuedInstType_0::SimdAesMix            0      0.00%     62.82% # Number of instructions issued per FU type, per thread (Count)
system.cpu.statIssuedInstType_0::SimdSha1Hash            0      0.00%     62.82% # Number of instructions issued per FU type, per thread (Count)
system.cpu.statIssuedInstType_0::SimdSha1Hash2            0      0.00%     62.82% # Number of instructions issued per FU type, per thread (Count)
system.cpu.statIssuedInstType_0::SimdSha256Hash            0      0.00%     62.82% # Number of instructions issued per FU type, per thread (Count)
system.cpu.statIssuedInstType_0::SimdSha256Hash2            0      0.00%     62.82% # Number of instructions issued per FU type, per thread (Count)
system.cpu.statIssuedInstType_0::SimdShaSigma2            0      0.00%     62.82% # Number of instructions issued per FU type, per thread (Count)
system.cpu.statIssuedInstType_0::SimdShaSigma3            0      0.00%     62.82% # Number of instructions issued per FU type, per thread (Count)
system.cpu.statIssuedInstType_0::SimdPredAlu            0      0.00%     62.82% # Number of instructions issued per FU type, per thread (Count)
system.cpu.statIssuedInstType_0::MemRead    353152962     27.13%     89.95% # Number of instructions issued per FU type, per thread (Count)
system.cpu.statIssuedInstType_0::MemWrite    130876531     10.05%    100.00% # Number of instructions issued per FU type, per thread (Count)
system.cpu.statIssuedInstType_0::FloatMemRead            0      0.00%    100.00% # Number of instructions issued per FU type, per thread (Count)
system.cpu.statIssuedInstType_0::FloatMemWrite            0      0.00%    100.00% # Number of instructions issued per FU type, per thread (Count)
system.cpu.statIssuedInstType_0::IprAccess            0      0.00%    100.00% # Number of instructions issued per FU type, per thread (Count)
system.cpu.statIssuedInstType_0::InstPrefetch            0      0.00%    100.00% # Number of instructions issued per FU type, per thread (Count)
system.cpu.statIssuedInstType_0::total     1301920112                       # Number of instructions issued per FU type, per thread (Count)
system.cpu.issueRate                         1.590285                       # Inst issue rate ((Count/Cycle))
system.cpu.fuBusy                            30416365                       # FU busy when requested (Count)
system.cpu.fuBusyRate                        0.023363                       # FU busy rate (busy events/executed inst) ((Count/Count))
system.cpu.intInstQueueReads               3457826108                       # Number of integer instruction queue reads (Count)
system.cpu.intInstQueueWrites              1698615102                       # Number of integer instruction queue writes (Count)
system.cpu.intInstQueueWakeupAccesses      1224145511                       # Number of integer instruction queue wakeup accesses (Count)
system.cpu.fpInstQueueReads                         0                       # Number of floating instruction queue reads (Count)
system.cpu.fpInstQueueWrites                        0                       # Number of floating instruction queue writes (Count)
system.cpu.fpInstQueueWakeupAccesses                0                       # Number of floating instruction queue wakeup accesses (Count)
system.cpu.vecInstQueueReads                        0                       # Number of vector instruction queue reads (Count)
system.cpu.vecInstQueueWrites                       0                       # Number of vector instruction queue writes (Count)
system.cpu.vecInstQueueWakeupAccesses               0                       # Number of vector instruction queue wakeup accesses (Count)
system.cpu.intAluAccesses                  1332336475                       # Number of integer alu accesses (Count)
system.cpu.fpAluAccesses                            0                       # Number of floating point alu accesses (Count)
system.cpu.vecAluAccesses                           0                       # Number of vector alu accesses (Count)
system.cpu.numInsts                        1288560766                       # Number of executed instructions (Count)
system.cpu.numLoadInsts                     347482274                       # Number of load instructions executed (Count)
system.cpu.numSquashedInsts                  13359346                       # Number of squashed instructions skipped in execute (Count)
system.cpu.numSwp                                   0                       # Number of swp insts executed (Count)
system.cpu.numNop                                  29                       # Number of nop insts executed (Count)
system.cpu.numRefs                          476600953                       # Number of memory reference insts executed (Count)
system.cpu.numBranches                      264541629                       # Number of branches executed (Count)
system.cpu.numStoreInsts                    129118679                       # Number of stores executed (Count)
system.cpu.numRate                           1.573967                       # Inst execution rate ((Count/Cycle))
system.cpu.timesIdled                             203                       # Number of times that the entire CPU went into an idle state and unscheduled itself (Count)
system.cpu.idleCycles                            1731                       # Total number of cycles that the CPU has spent unscheduled due to idling (Cycle)
system.cpu.committedInsts                  1000000000                       # Number of Instructions Simulated (Count)
system.cpu.committedOps                    1084388561                       # Number of Ops (including micro ops) Simulated (Count)
system.cpu.cpi                               0.818671                       # CPI: Cycles Per Instruction ((Cycle/Count))
system.cpu.totalCpi                          0.818671                       # CPI: Total CPI of All Threads ((Cycle/Count))
system.cpu.ipc                               1.221492                       # IPC: Instructions Per Cycle ((Count/Cycle))
system.cpu.totalIpc                          1.221492                       # IPC: Total IPC of All Threads ((Count/Cycle))
system.cpu.intRegfileReads                 1308182784                       # Number of integer regfile reads (Count)
system.cpu.intRegfileWrites                 644487002                       # Number of integer regfile writes (Count)
system.cpu.vecRegfileReads                         16                       # number of vector regfile reads (Count)
system.cpu.ccRegfileReads                  4676050127                       # number of cc regfile reads (Count)
system.cpu.ccRegfileWrites                  825540682                       # number of cc regfile writes (Count)
system.cpu.miscRegfileReads                 426359405                       # number of misc regfile reads (Count)
system.cpu.miscRegfileWrites                  5052022                       # number of misc regfile writes (Count)
system.cpu.MemDepUnit__0.insertedLoads      337035690                       # Number of loads inserted to the mem dependence unit. (Count)
system.cpu.MemDepUnit__0.insertedStores     141916281                       # Number of stores inserted to the mem dependence unit. (Count)
system.cpu.MemDepUnit__0.conflictingLoads     45722064                       # Number of conflicting loads. (Count)
system.cpu.MemDepUnit__0.conflictingStores     30791981                       # Number of conflicting stores. (Count)
system.cpu.MemDepUnit__1.insertedLoads              0                       # Number of loads inserted to the mem dependence unit. (Count)
system.cpu.MemDepUnit__1.insertedStores             0                       # Number of stores inserted to the mem dependence unit. (Count)
system.cpu.MemDepUnit__1.conflictingLoads            0                       # Number of conflicting loads. (Count)
system.cpu.MemDepUnit__1.conflictingStores            0                       # Number of conflicting stores. (Count)
system.cpu.MemDepUnit__2.insertedLoads              0                       # Number of loads inserted to the mem dependence unit. (Count)
system.cpu.MemDepUnit__2.insertedStores             0                       # Number of stores inserted to the mem dependence unit. (Count)
system.cpu.MemDepUnit__2.conflictingLoads            0                       # Number of conflicting loads. (Count)
system.cpu.MemDepUnit__2.conflictingStores            0                       # Number of conflicting stores. (Count)
system.cpu.MemDepUnit__3.insertedLoads              0                       # Number of loads inserted to the mem dependence unit. (Count)
system.cpu.MemDepUnit__3.insertedStores             0                       # Number of stores inserted to the mem dependence unit. (Count)
system.cpu.MemDepUnit__3.conflictingLoads            0                       # Number of conflicting loads. (Count)
system.cpu.MemDepUnit__3.conflictingStores            0                       # Number of conflicting stores. (Count)
system.cpu.branchPred.lookups               337298152                       # Number of BP lookups (Count)
system.cpu.branchPred.condPredicted         283081037                       # Number of conditional branches predicted (Count)
system.cpu.branchPred.condIncorrect          10173164                       # Number of conditional branches incorrect (Count)
system.cpu.branchPred.BTBLookups            148158182                       # Number of BTB lookups (Count)
system.cpu.branchPred.BTBHits               144473706                       # Number of BTB hits (Count)
system.cpu.branchPred.BTBHitRatio            0.975131                       # BTB Hit Ratio (Ratio)
system.cpu.branchPred.RASUsed                10627887                       # Number of times the RAS was used to get a target. (Count)
system.cpu.branchPred.RASIncorrect                 48                       # Number of incorrect RAS predictions. (Count)
system.cpu.branchPred.indirectLookups         2545766                       # Number of indirect predictor lookups. (Count)
system.cpu.branchPred.indirectHits            1332656                       # Number of indirect target hits. (Count)
system.cpu.branchPred.indirectMisses          1213110                       # Number of indirect misses. (Count)
system.cpu.branchPred.indirectMispredicted         9087                       # Number of mispredicted indirect branches. (Count)
system.cpu.commit.commitSquashedInsts       307008312                       # The number of squashed insts skipped by commit (Count)
system.cpu.commit.commitNonSpecStalls         3789440                       # The number of times commit has been forced to stall to communicate backwards (Count)
system.cpu.commit.branchMispredicts           8114821                       # The number of times a branch was mispredicted (Count)
system.cpu.commit.numCommittedDist::samples    774534983                       # Number of insts commited each cycle (Count)
system.cpu.commit.numCommittedDist::mean     1.400051                       # Number of insts commited each cycle (Count)
system.cpu.commit.numCommittedDist::stdev     2.314576                       # Number of insts commited each cycle (Count)
system.cpu.commit.numCommittedDist::underflows            0      0.00%      0.00% # Number of insts commited each cycle (Count)
system.cpu.commit.numCommittedDist::0       420842492     54.33%     54.33% # Number of insts commited each cycle (Count)
system.cpu.commit.numCommittedDist::1       157518205     20.34%     74.67% # Number of insts commited each cycle (Count)
system.cpu.commit.numCommittedDist::2        56538404      7.30%     81.97% # Number of insts commited each cycle (Count)
system.cpu.commit.numCommittedDist::3        24555632      3.17%     85.14% # Number of insts commited each cycle (Count)
system.cpu.commit.numCommittedDist::4        22479365      2.90%     88.04% # Number of insts commited each cycle (Count)
system.cpu.commit.numCommittedDist::5        19563751      2.53%     90.57% # Number of insts commited each cycle (Count)
system.cpu.commit.numCommittedDist::6         9186505      1.19%     91.76% # Number of insts commited each cycle (Count)
system.cpu.commit.numCommittedDist::7        13533624      1.75%     93.50% # Number of insts commited each cycle (Count)
system.cpu.commit.numCommittedDist::8        50317005      6.50%    100.00% # Number of insts commited each cycle (Count)
system.cpu.commit.numCommittedDist::overflows            0      0.00%    100.00% # Number of insts commited each cycle (Count)
system.cpu.commit.numCommittedDist::min_value            0                       # Number of insts commited each cycle (Count)
system.cpu.commit.numCommittedDist::max_value            8                       # Number of insts commited each cycle (Count)
system.cpu.commit.numCommittedDist::total    774534983                       # Number of insts commited each cycle (Count)
system.cpu.commit.instsCommitted           1000000001                       # Number of instructions committed (Count)
system.cpu.commit.opsCommitted             1084388562                       # Number of ops (including micro ops) committed (Count)
system.cpu.commit.memRefs                   371594264                       # Number of memory references committed (Count)
system.cpu.commit.loads                     257232843                       # Number of loads committed (Count)
system.cpu.commit.amos                              0                       # Number of atomic instructions committed (Count)
system.cpu.commit.membars                     2526011                       # Number of memory barriers committed (Count)
system.cpu.commit.branches                  234516986                       # Number of branches committed (Count)
system.cpu.commit.vectorInstructions                0                       # Number of committed Vector instructions. (Count)
system.cpu.commit.floating                          0                       # Number of committed floating point instructions. (Count)
system.cpu.commit.integer                   857333723                       # Number of committed integer instructions. (Count)
system.cpu.commit.functionCalls               6817153                       # Number of function calls committed. (Count)
system.cpu.commit.committedInstType_0::No_OpClass            0      0.00%      0.00% # Class of committed instruction (Count)
system.cpu.commit.committedInstType_0::IntAlu    710093877     65.48%     65.48% # Class of committed instruction (Count)
system.cpu.commit.committedInstType_0::IntMult      2700418      0.25%     65.73% # Class of committed instruction (Count)
system.cpu.commit.committedInstType_0::IntDiv            0      0.00%     65.73% # Class of committed instruction (Count)
system.cpu.commit.committedInstType_0::FloatAdd            0      0.00%     65.73% # Class of committed instruction (Count)
system.cpu.commit.committedInstType_0::FloatCmp            0      0.00%     65.73% # Class of committed instruction (Count)
system.cpu.commit.committedInstType_0::FloatCvt            0      0.00%     65.73% # Class of committed instruction (Count)
system.cpu.commit.committedInstType_0::FloatMult            0      0.00%     65.73% # Class of committed instruction (Count)
system.cpu.commit.committedInstType_0::FloatMultAcc            0      0.00%     65.73% # Class of committed instruction (Count)
system.cpu.commit.committedInstType_0::FloatDiv            0      0.00%     65.73% # Class of committed instruction (Count)
system.cpu.commit.committedInstType_0::FloatMisc            0      0.00%     65.73% # Class of committed instruction (Count)
system.cpu.commit.committedInstType_0::FloatSqrt            0      0.00%     65.73% # Class of committed instruction (Count)
system.cpu.commit.committedInstType_0::SimdAdd            0      0.00%     65.73% # Class of committed instruction (Count)
system.cpu.commit.committedInstType_0::SimdAddAcc            0      0.00%     65.73% # Class of committed instruction (Count)
system.cpu.commit.committedInstType_0::SimdAlu            0      0.00%     65.73% # Class of committed instruction (Count)
system.cpu.commit.committedInstType_0::SimdCmp            0      0.00%     65.73% # Class of committed instruction (Count)
system.cpu.commit.committedInstType_0::SimdCvt            0      0.00%     65.73% # Class of committed instruction (Count)
system.cpu.commit.committedInstType_0::SimdMisc            0      0.00%     65.73% # Class of committed instruction (Count)
system.cpu.commit.committedInstType_0::SimdMult            0      0.00%     65.73% # Class of committed instruction (Count)
system.cpu.commit.committedInstType_0::SimdMultAcc            0      0.00%     65.73% # Class of committed instruction (Count)
system.cpu.commit.committedInstType_0::SimdShift            0      0.00%     65.73% # Class of committed instruction (Count)
system.cpu.commit.committedInstType_0::SimdShiftAcc            0      0.00%     65.73% # Class of committed instruction (Count)
system.cpu.commit.committedInstType_0::SimdDiv            0      0.00%     65.73% # Class of committed instruction (Count)
system.cpu.commit.committedInstType_0::SimdSqrt            0      0.00%     65.73% # Class of committed instruction (Count)
system.cpu.commit.committedInstType_0::SimdFloatAdd            0      0.00%     65.73% # Class of committed instruction (Count)
system.cpu.commit.committedInstType_0::SimdFloatAlu            0      0.00%     65.73% # Class of committed instruction (Count)
system.cpu.commit.committedInstType_0::SimdFloatCmp            0      0.00%     65.73% # Class of committed instruction (Count)
system.cpu.commit.committedInstType_0::SimdFloatCvt            0      0.00%     65.73% # Class of committed instruction (Count)
system.cpu.commit.committedInstType_0::SimdFloatDiv            0      0.00%     65.73% # Class of committed instruction (Count)
system.cpu.commit.committedInstType_0::SimdFloatMisc            3      0.00%     65.73% # Class of committed instruction (Count)
system.cpu.commit.committedInstType_0::SimdFloatMult            0      0.00%     65.73% # Class of committed instruction (Count)
system.cpu.commit.committedInstType_0::SimdFloatMultAcc            0      0.00%     65.73% # Class of committed instruction (Count)
system.cpu.commit.committedInstType_0::SimdFloatSqrt            0      0.00%     65.73% # Class of committed instruction (Count)
system.cpu.commit.committedInstType_0::SimdReduceAdd            0      0.00%     65.73% # Class of committed instruction (Count)
system.cpu.commit.committedInstType_0::SimdReduceAlu            0      0.00%     65.73% # Class of committed instruction (Count)
system.cpu.commit.committedInstType_0::SimdReduceCmp            0      0.00%     65.73% # Class of committed instruction (Count)
system.cpu.commit.committedInstType_0::SimdFloatReduceAdd            0      0.00%     65.73% # Class of committed instruction (Count)
system.cpu.commit.committedInstType_0::SimdFloatReduceCmp            0      0.00%     65.73% # Class of committed instruction (Count)
system.cpu.commit.committedInstType_0::SimdAes            0      0.00%     65.73% # Class of committed instruction (Count)
system.cpu.commit.committedInstType_0::SimdAesMix            0      0.00%     65.73% # Class of committed instruction (Count)
system.cpu.commit.committedInstType_0::SimdSha1Hash            0      0.00%     65.73% # Class of committed instruction (Count)
system.cpu.commit.committedInstType_0::SimdSha1Hash2            0      0.00%     65.73% # Class of committed instruction (Count)
system.cpu.commit.committedInstType_0::SimdSha256Hash            0      0.00%     65.73% # Class of committed instruction (Count)
system.cpu.commit.committedInstType_0::SimdSha256Hash2            0      0.00%     65.73% # Class of committed instruction (Count)
system.cpu.commit.committedInstType_0::SimdShaSigma2            0      0.00%     65.73% # Class of committed instruction (Count)
system.cpu.commit.committedInstType_0::SimdShaSigma3            0      0.00%     65.73% # Class of committed instruction (Count)
system.cpu.commit.committedInstType_0::SimdPredAlu            0      0.00%     65.73% # Class of committed instruction (Count)
system.cpu.commit.committedInstType_0::MemRead    257232843     23.72%     89.45% # Class of committed instruction (Count)
system.cpu.commit.committedInstType_0::MemWrite    114361421     10.55%    100.00% # Class of committed instruction (Count)
system.cpu.commit.committedInstType_0::FloatMemRead            0      0.00%    100.00% # Class of committed instruction (Count)
system.cpu.commit.committedInstType_0::FloatMemWrite            0      0.00%    100.00% # Class of committed instruction (Count)
system.cpu.commit.committedInstType_0::IprAccess            0      0.00%    100.00% # Class of committed instruction (Count)
system.cpu.commit.committedInstType_0::InstPrefetch            0      0.00%    100.00% # Class of committed instruction (Count)
system.cpu.commit.committedInstType_0::total   1084388562                       # Class of committed instruction (Count)
system.cpu.commit.commitEligibleSamples      50317005                       # number cycles where commit BW limit reached (Cycle)
system.cpu.dcache.demandHits::cpu.data      331276025                       # number of demand (read+write) hits (Count)
system.cpu.dcache.demandHits::total         331276025                       # number of demand (read+write) hits (Count)
system.cpu.dcache.overallHits::cpu.data     331486979                       # number of overall hits (Count)
system.cpu.dcache.overallHits::total        331486979                       # number of overall hits (Count)
system.cpu.dcache.demandMisses::cpu.data     65104064                       # number of demand (read+write) misses (Count)
system.cpu.dcache.demandMisses::total        65104064                       # number of demand (read+write) misses (Count)
system.cpu.dcache.overallMisses::cpu.data     65104111                       # number of overall misses (Count)
system.cpu.dcache.overallMisses::total       65104111                       # number of overall misses (Count)
system.cpu.dcache.demandMissLatency::cpu.data 3917126399060                       # number of demand (read+write) miss ticks (Tick)
system.cpu.dcache.demandMissLatency::total 3917126399060                       # number of demand (read+write) miss ticks (Tick)
system.cpu.dcache.overallMissLatency::cpu.data 3917126399060                       # number of overall miss ticks (Tick)
system.cpu.dcache.overallMissLatency::total 3917126399060                       # number of overall miss ticks (Tick)
system.cpu.dcache.demandAccesses::cpu.data    396380089                       # number of demand (read+write) accesses (Count)
system.cpu.dcache.demandAccesses::total     396380089                       # number of demand (read+write) accesses (Count)
system.cpu.dcache.overallAccesses::cpu.data    396591090                       # number of overall (read+write) accesses (Count)
system.cpu.dcache.overallAccesses::total    396591090                       # number of overall (read+write) accesses (Count)
system.cpu.dcache.demandMissRate::cpu.data     0.164247                       # miss rate for demand accesses (Ratio)
system.cpu.dcache.demandMissRate::total      0.164247                       # miss rate for demand accesses (Ratio)
system.cpu.dcache.overallMissRate::cpu.data     0.164159                       # miss rate for overall accesses (Ratio)
system.cpu.dcache.overallMissRate::total     0.164159                       # miss rate for overall accesses (Ratio)
system.cpu.dcache.demandAvgMissLatency::cpu.data 60167.156371                       # average overall miss latency in ticks ((Tick/Count))
system.cpu.dcache.demandAvgMissLatency::total 60167.156371                       # average overall miss latency in ticks ((Tick/Count))
system.cpu.dcache.overallAvgMissLatency::cpu.data 60167.112935                       # average overall miss latency ((Tick/Count))
system.cpu.dcache.overallAvgMissLatency::total 60167.112935                       # average overall miss latency ((Tick/Count))
system.cpu.dcache.blockedCycles::no_mshrs     40096936                       # number of cycles access was blocked (Cycle)
system.cpu.dcache.blockedCycles::no_targets           78                       # number of cycles access was blocked (Cycle)
system.cpu.dcache.blockedCauses::no_mshrs      9077630                       # number of times access was blocked (Count)
system.cpu.dcache.blockedCauses::no_targets            7                       # number of times access was blocked (Count)
system.cpu.dcache.avgBlocked::no_mshrs       4.417115                       # average number of cycles each access was blocked ((Cycle/Count))
system.cpu.dcache.avgBlocked::no_targets    11.142857                       # average number of cycles each access was blocked ((Cycle/Count))
system.cpu.dcache.writebacks::writebacks     10042513                       # number of writebacks (Count)
system.cpu.dcache.writebacks::total          10042513                       # number of writebacks (Count)
system.cpu.dcache.demandMshrHits::cpu.data     32438937                       # number of demand (read+write) MSHR hits (Count)
system.cpu.dcache.demandMshrHits::total      32438937                       # number of demand (read+write) MSHR hits (Count)
system.cpu.dcache.overallMshrHits::cpu.data     32438937                       # number of overall MSHR hits (Count)
system.cpu.dcache.overallMshrHits::total     32438937                       # number of overall MSHR hits (Count)
system.cpu.dcache.demandMshrMisses::cpu.data     32665127                       # number of demand (read+write) MSHR misses (Count)
system.cpu.dcache.demandMshrMisses::total     32665127                       # number of demand (read+write) MSHR misses (Count)
system.cpu.dcache.overallMshrMisses::cpu.data     32665158                       # number of overall MSHR misses (Count)
system.cpu.dcache.overallMshrMisses::total     32665158                       # number of overall MSHR misses (Count)
system.cpu.dcache.demandMshrMissLatency::cpu.data 1682478320959                       # number of demand (read+write) MSHR miss ticks (Tick)
system.cpu.dcache.demandMshrMissLatency::total 1682478320959                       # number of demand (read+write) MSHR miss ticks (Tick)
system.cpu.dcache.overallMshrMissLatency::cpu.data 1682479401585                       # number of overall MSHR miss ticks (Tick)
system.cpu.dcache.overallMshrMissLatency::total 1682479401585                       # number of overall MSHR miss ticks (Tick)
system.cpu.dcache.demandMshrMissRate::cpu.data     0.082409                       # mshr miss ratio for demand accesses (Ratio)
system.cpu.dcache.demandMshrMissRate::total     0.082409                       # mshr miss ratio for demand accesses (Ratio)
system.cpu.dcache.overallMshrMissRate::cpu.data     0.082365                       # mshr miss ratio for overall accesses (Ratio)
system.cpu.dcache.overallMshrMissRate::total     0.082365                       # mshr miss ratio for overall accesses (Ratio)
system.cpu.dcache.demandAvgMshrMissLatency::cpu.data 51506.866052                       # average overall mshr miss latency ((Tick/Count))
system.cpu.dcache.demandAvgMshrMissLatency::total 51506.866052                       # average overall mshr miss latency ((Tick/Count))
system.cpu.dcache.overallAvgMshrMissLatency::cpu.data 51506.850253                       # average overall mshr miss latency ((Tick/Count))
system.cpu.dcache.overallAvgMshrMissLatency::total 51506.850253                       # average overall mshr miss latency ((Tick/Count))
system.cpu.dcache.replacements               32664638                       # number of replacements (Count)
system.cpu.dcache.LoadLockedReq.hits::cpu.data      1263003                       # number of LoadLockedReq hits (Count)
system.cpu.dcache.LoadLockedReq.hits::total      1263003                       # number of LoadLockedReq hits (Count)
system.cpu.dcache.LoadLockedReq.misses::cpu.data            2                       # number of LoadLockedReq misses (Count)
system.cpu.dcache.LoadLockedReq.misses::total            2                       # number of LoadLockedReq misses (Count)
system.cpu.dcache.LoadLockedReq.missLatency::cpu.data       173316                       # number of LoadLockedReq miss ticks (Tick)
system.cpu.dcache.LoadLockedReq.missLatency::total       173316                       # number of LoadLockedReq miss ticks (Tick)
system.cpu.dcache.LoadLockedReq.accesses::cpu.data      1263005                       # number of LoadLockedReq accesses(hits+misses) (Count)
system.cpu.dcache.LoadLockedReq.accesses::total      1263005                       # number of LoadLockedReq accesses(hits+misses) (Count)
system.cpu.dcache.LoadLockedReq.missRate::cpu.data     0.000002                       # miss rate for LoadLockedReq accesses (Ratio)
system.cpu.dcache.LoadLockedReq.missRate::total     0.000002                       # miss rate for LoadLockedReq accesses (Ratio)
system.cpu.dcache.LoadLockedReq.avgMissLatency::cpu.data        86658                       # average LoadLockedReq miss latency ((Tick/Count))
system.cpu.dcache.LoadLockedReq.avgMissLatency::total        86658                       # average LoadLockedReq miss latency ((Tick/Count))
system.cpu.dcache.LoadLockedReq.mshrMisses::cpu.data            2                       # number of LoadLockedReq MSHR misses (Count)
system.cpu.dcache.LoadLockedReq.mshrMisses::total            2                       # number of LoadLockedReq MSHR misses (Count)
system.cpu.dcache.LoadLockedReq.mshrMissLatency::cpu.data       156211                       # number of LoadLockedReq MSHR miss ticks (Tick)
system.cpu.dcache.LoadLockedReq.mshrMissLatency::total       156211                       # number of LoadLockedReq MSHR miss ticks (Tick)
system.cpu.dcache.LoadLockedReq.mshrMissRate::cpu.data     0.000002                       # mshr miss rate for LoadLockedReq accesses (Ratio)
system.cpu.dcache.LoadLockedReq.mshrMissRate::total     0.000002                       # mshr miss rate for LoadLockedReq accesses (Ratio)
system.cpu.dcache.LoadLockedReq.avgMshrMissLatency::cpu.data 78105.500000                       # average LoadLockedReq mshr miss latency ((Tick/Count))
system.cpu.dcache.LoadLockedReq.avgMshrMissLatency::total 78105.500000                       # average LoadLockedReq mshr miss latency ((Tick/Count))
system.cpu.dcache.ReadReq.hits::cpu.data    223407531                       # number of ReadReq hits (Count)
system.cpu.dcache.ReadReq.hits::total       223407531                       # number of ReadReq hits (Count)
system.cpu.dcache.ReadReq.misses::cpu.data     62613523                       # number of ReadReq misses (Count)
system.cpu.dcache.ReadReq.misses::total      62613523                       # number of ReadReq misses (Count)
system.cpu.dcache.ReadReq.missLatency::cpu.data 3787150175419                       # number of ReadReq miss ticks (Tick)
system.cpu.dcache.ReadReq.missLatency::total 3787150175419                       # number of ReadReq miss ticks (Tick)
system.cpu.dcache.ReadReq.accesses::cpu.data    286021054                       # number of ReadReq accesses(hits+misses) (Count)
system.cpu.dcache.ReadReq.accesses::total    286021054                       # number of ReadReq accesses(hits+misses) (Count)
system.cpu.dcache.ReadReq.missRate::cpu.data     0.218912                       # miss rate for ReadReq accesses (Ratio)
system.cpu.dcache.ReadReq.missRate::total     0.218912                       # miss rate for ReadReq accesses (Ratio)
system.cpu.dcache.ReadReq.avgMissLatency::cpu.data 60484.540623                       # average ReadReq miss latency ((Tick/Count))
system.cpu.dcache.ReadReq.avgMissLatency::total 60484.540623                       # average ReadReq miss latency ((Tick/Count))
system.cpu.dcache.ReadReq.mshrHits::cpu.data     30742521                       # number of ReadReq MSHR hits (Count)
system.cpu.dcache.ReadReq.mshrHits::total     30742521                       # number of ReadReq MSHR hits (Count)
system.cpu.dcache.ReadReq.mshrMisses::cpu.data     31871002                       # number of ReadReq MSHR misses (Count)
system.cpu.dcache.ReadReq.mshrMisses::total     31871002                       # number of ReadReq MSHR misses (Count)
system.cpu.dcache.ReadReq.mshrMissLatency::cpu.data 1643654860264                       # number of ReadReq MSHR miss ticks (Tick)
system.cpu.dcache.ReadReq.mshrMissLatency::total 1643654860264                       # number of ReadReq MSHR miss ticks (Tick)
system.cpu.dcache.ReadReq.mshrMissRate::cpu.data     0.111429                       # mshr miss rate for ReadReq accesses (Ratio)
system.cpu.dcache.ReadReq.mshrMissRate::total     0.111429                       # mshr miss rate for ReadReq accesses (Ratio)
system.cpu.dcache.ReadReq.avgMshrMissLatency::cpu.data 51572.111233                       # average ReadReq mshr miss latency ((Tick/Count))
system.cpu.dcache.ReadReq.avgMshrMissLatency::total 51572.111233                       # average ReadReq mshr miss latency ((Tick/Count))
system.cpu.dcache.SoftPFReq.hits::cpu.data       210954                       # number of SoftPFReq hits (Count)
system.cpu.dcache.SoftPFReq.hits::total        210954                       # number of SoftPFReq hits (Count)
system.cpu.dcache.SoftPFReq.misses::cpu.data           47                       # number of SoftPFReq misses (Count)
system.cpu.dcache.SoftPFReq.misses::total           47                       # number of SoftPFReq misses (Count)
system.cpu.dcache.SoftPFReq.accesses::cpu.data       211001                       # number of SoftPFReq accesses(hits+misses) (Count)
system.cpu.dcache.SoftPFReq.accesses::total       211001                       # number of SoftPFReq accesses(hits+misses) (Count)
system.cpu.dcache.SoftPFReq.missRate::cpu.data     0.000223                       # miss rate for SoftPFReq accesses (Ratio)
system.cpu.dcache.SoftPFReq.missRate::total     0.000223                       # miss rate for SoftPFReq accesses (Ratio)
system.cpu.dcache.SoftPFReq.mshrMisses::cpu.data           31                       # number of SoftPFReq MSHR misses (Count)
system.cpu.dcache.SoftPFReq.mshrMisses::total           31                       # number of SoftPFReq MSHR misses (Count)
system.cpu.dcache.SoftPFReq.mshrMissLatency::cpu.data      1080626                       # number of SoftPFReq MSHR miss ticks (Tick)
system.cpu.dcache.SoftPFReq.mshrMissLatency::total      1080626                       # number of SoftPFReq MSHR miss ticks (Tick)
system.cpu.dcache.SoftPFReq.mshrMissRate::cpu.data     0.000147                       # mshr miss rate for SoftPFReq accesses (Ratio)
system.cpu.dcache.SoftPFReq.mshrMissRate::total     0.000147                       # mshr miss rate for SoftPFReq accesses (Ratio)
system.cpu.dcache.SoftPFReq.avgMshrMissLatency::cpu.data 34858.903226                       # average SoftPFReq mshr miss latency ((Tick/Count))
system.cpu.dcache.SoftPFReq.avgMshrMissLatency::total 34858.903226                       # average SoftPFReq mshr miss latency ((Tick/Count))
system.cpu.dcache.StoreCondReq.hits::cpu.data      1263005                       # number of StoreCondReq hits (Count)
system.cpu.dcache.StoreCondReq.hits::total      1263005                       # number of StoreCondReq hits (Count)
system.cpu.dcache.StoreCondReq.accesses::cpu.data      1263005                       # number of StoreCondReq accesses(hits+misses) (Count)
system.cpu.dcache.StoreCondReq.accesses::total      1263005                       # number of StoreCondReq accesses(hits+misses) (Count)
system.cpu.dcache.WriteReq.hits::cpu.data    107868494                       # number of WriteReq hits (Count)
system.cpu.dcache.WriteReq.hits::total      107868494                       # number of WriteReq hits (Count)
system.cpu.dcache.WriteReq.misses::cpu.data      2490541                       # number of WriteReq misses (Count)
system.cpu.dcache.WriteReq.misses::total      2490541                       # number of WriteReq misses (Count)
system.cpu.dcache.WriteReq.missLatency::cpu.data 129976223641                       # number of WriteReq miss ticks (Tick)
system.cpu.dcache.WriteReq.missLatency::total 129976223641                       # number of WriteReq miss ticks (Tick)
system.cpu.dcache.WriteReq.accesses::cpu.data    110359035                       # number of WriteReq accesses(hits+misses) (Count)
system.cpu.dcache.WriteReq.accesses::total    110359035                       # number of WriteReq accesses(hits+misses) (Count)
system.cpu.dcache.WriteReq.missRate::cpu.data     0.022568                       # miss rate for WriteReq accesses (Ratio)
system.cpu.dcache.WriteReq.missRate::total     0.022568                       # miss rate for WriteReq accesses (Ratio)
system.cpu.dcache.WriteReq.avgMissLatency::cpu.data 52187.947776                       # average WriteReq miss latency ((Tick/Count))
system.cpu.dcache.WriteReq.avgMissLatency::total 52187.947776                       # average WriteReq miss latency ((Tick/Count))
system.cpu.dcache.WriteReq.mshrHits::cpu.data      1696416                       # number of WriteReq MSHR hits (Count)
system.cpu.dcache.WriteReq.mshrHits::total      1696416                       # number of WriteReq MSHR hits (Count)
system.cpu.dcache.WriteReq.mshrMisses::cpu.data       794125                       # number of WriteReq MSHR misses (Count)
system.cpu.dcache.WriteReq.mshrMisses::total       794125                       # number of WriteReq MSHR misses (Count)
system.cpu.dcache.WriteReq.mshrMissLatency::cpu.data  38823460695                       # number of WriteReq MSHR miss ticks (Tick)
system.cpu.dcache.WriteReq.mshrMissLatency::total  38823460695                       # number of WriteReq MSHR miss ticks (Tick)
system.cpu.dcache.WriteReq.mshrMissRate::cpu.data     0.007196                       # mshr miss rate for WriteReq accesses (Ratio)
system.cpu.dcache.WriteReq.mshrMissRate::total     0.007196                       # mshr miss rate for WriteReq accesses (Ratio)
system.cpu.dcache.WriteReq.avgMshrMissLatency::cpu.data 48888.349687                       # average WriteReq mshr miss latency ((Tick/Count))
system.cpu.dcache.WriteReq.avgMshrMissLatency::total 48888.349687                       # average WriteReq mshr miss latency ((Tick/Count))
system.cpu.dcache.power_state.pwrStateResidencyTicks::UNDEFINED 2728630069704                       # Cumulative time (in ticks) in various power states (Tick)
system.cpu.dcache.tags.tagsInUse           511.963324                       # Average ticks per tags in use ((Tick/Count))
system.cpu.dcache.tags.totalRefs            366678217                       # Total number of references to valid blocks. (Count)
system.cpu.dcache.tags.sampledRefs           32665150                       # Sample count of references to valid blocks. (Count)
system.cpu.dcache.tags.avgRefs              11.225365                       # Average number of references to valid blocks. ((Count/Count))
system.cpu.dcache.tags.warmupTick              141500                       # The tick when the warmup percentage was hit. (Tick)
system.cpu.dcache.tags.occupancies::cpu.data   511.963324                       # Average occupied blocks per tick, per requestor ((Count/Tick))
system.cpu.dcache.tags.avgOccs::cpu.data     0.999928                       # Average percentage of cache occupancy ((Ratio/Tick))
system.cpu.dcache.tags.avgOccs::total        0.999928                       # Average percentage of cache occupancy ((Ratio/Tick))
system.cpu.dcache.tags.occupanciesTaskId::1024          512                       # Occupied blocks per task id (Count)
system.cpu.dcache.tags.ageTaskId_1024::0          101                       # Occupied blocks per task id, per block age (Count)
system.cpu.dcache.tags.ageTaskId_1024::1          410                       # Occupied blocks per task id, per block age (Count)
system.cpu.dcache.tags.ageTaskId_1024::3            1                       # Occupied blocks per task id, per block age (Count)
system.cpu.dcache.tags.ratioOccsTaskId::1024            1                       # Ratio of occupied blocks and all blocks, per task id (Ratio)
system.cpu.dcache.tags.tagAccesses         1629133550                       # Number of tag accesses (Count)
system.cpu.dcache.tags.dataAccesses        1629133550                       # Number of data accesses (Count)
system.cpu.dcache.tags.power_state.pwrStateResidencyTicks::UNDEFINED 2728630069704                       # Cumulative time (in ticks) in various power states (Tick)
system.cpu.decode.idleCycles                141547436                       # Number of cycles decode is idle (Cycle)
system.cpu.decode.blockedCycles             420755100                       # Number of cycles decode is blocked (Cycle)
system.cpu.decode.runCycles                 211788176                       # Number of cycles decode is running (Cycle)
system.cpu.decode.unblockCycles              35602149                       # Number of cycles decode is unblocking (Cycle)
system.cpu.decode.squashCycles                8976297                       # Number of cycles decode is squashing (Cycle)
system.cpu.decode.branchResolved            137999234                       # Number of times decode resolved a branch (Count)
system.cpu.decode.branchMispred               2062573                       # Number of times decode detected a branch misprediction (Count)
system.cpu.decode.decodedInsts             1486735394                       # Number of instructions handled by decode (Count)
system.cpu.decode.squashedInsts               3613681                       # Number of squashed instructions handled by decode (Count)
system.cpu.fetch.icacheStallCycles          181523241                       # Number of cycles fetch is stalled on an Icache miss (Cycle)
system.cpu.fetch.insts                     1467480560                       # Number of instructions fetch has processed (Count)
system.cpu.fetch.branches                   337298152                       # Number of branches that fetch encountered (Count)
system.cpu.fetch.predictedBranches          156434249                       # Number of branches that fetch has predicted taken (Count)
system.cpu.fetch.cycles                     626111261                       # Number of cycles fetch has run and was not squashing or blocked (Cycle)
system.cpu.fetch.squashCycles                22069282                       # Number of cycles fetch has spent squashing (Cycle)
system.cpu.fetch.miscStallCycles                    2                       # Number of cycles fetch has spent waiting on interrupts, or bad addresses, or out of MSHRs (Cycle)
system.cpu.fetch.pendingTrapStallCycles            13                       # Number of stall cycles due to pending traps (Cycle)
system.cpu.fetch.cacheLines                 176136639                       # Number of cache lines fetched (Count)
system.cpu.fetch.icacheSquashes               3603461                       # Number of outstanding Icache misses that were squashed (Count)
system.cpu.fetch.nisnDist::samples          818669158                       # Number of instructions fetched each cycle (Total) (Count)
system.cpu.fetch.nisnDist::mean              1.933551                       # Number of instructions fetched each cycle (Total) (Count)
system.cpu.fetch.nisnDist::stdev             2.936567                       # Number of instructions fetched each cycle (Total) (Count)
system.cpu.fetch.nisnDist::underflows               0      0.00%      0.00% # Number of instructions fetched each cycle (Total) (Count)
system.cpu.fetch.nisnDist::0                515195538     62.93%     62.93% # Number of instructions fetched each cycle (Total) (Count)
system.cpu.fetch.nisnDist::1                 18486958      2.26%     65.19% # Number of instructions fetched each cycle (Total) (Count)
system.cpu.fetch.nisnDist::2                 43030011      5.26%     70.45% # Number of instructions fetched each cycle (Total) (Count)
system.cpu.fetch.nisnDist::3                 38357564      4.69%     75.13% # Number of instructions fetched each cycle (Total) (Count)
system.cpu.fetch.nisnDist::4                 27317212      3.34%     78.47% # Number of instructions fetched each cycle (Total) (Count)
system.cpu.fetch.nisnDist::5                 22211284      2.71%     81.18% # Number of instructions fetched each cycle (Total) (Count)
system.cpu.fetch.nisnDist::6                 37647542      4.60%     85.78% # Number of instructions fetched each cycle (Total) (Count)
system.cpu.fetch.nisnDist::7                 14276219      1.74%     87.52% # Number of instructions fetched each cycle (Total) (Count)
system.cpu.fetch.nisnDist::8                102146830     12.48%    100.00% # Number of instructions fetched each cycle (Total) (Count)
system.cpu.fetch.nisnDist::overflows                0      0.00%    100.00% # Number of instructions fetched each cycle (Total) (Count)
system.cpu.fetch.nisnDist::min_value                0                       # Number of instructions fetched each cycle (Total) (Count)
system.cpu.fetch.nisnDist::max_value                8                       # Number of instructions fetched each cycle (Total) (Count)
system.cpu.fetch.nisnDist::total            818669158                       # Number of instructions fetched each cycle (Total) (Count)
system.cpu.fetch.branchRate                  0.412007                       # Number of branch fetches per cycle (Ratio)
system.cpu.fetch.rate                        1.792516                       # Number of inst fetches per cycle ((Count/Cycle))
system.cpu.icache.demandHits::cpu.inst      176135977                       # number of demand (read+write) hits (Count)
system.cpu.icache.demandHits::total         176135977                       # number of demand (read+write) hits (Count)
system.cpu.icache.overallHits::cpu.inst     176135977                       # number of overall hits (Count)
system.cpu.icache.overallHits::total        176135977                       # number of overall hits (Count)
system.cpu.icache.demandMisses::cpu.inst          662                       # number of demand (read+write) misses (Count)
system.cpu.icache.demandMisses::total             662                       # number of demand (read+write) misses (Count)
system.cpu.icache.overallMisses::cpu.inst          662                       # number of overall misses (Count)
system.cpu.icache.overallMisses::total            662                       # number of overall misses (Count)
system.cpu.icache.demandMissLatency::cpu.inst     52508082                       # number of demand (read+write) miss ticks (Tick)
system.cpu.icache.demandMissLatency::total     52508082                       # number of demand (read+write) miss ticks (Tick)
system.cpu.icache.overallMissLatency::cpu.inst     52508082                       # number of overall miss ticks (Tick)
system.cpu.icache.overallMissLatency::total     52508082                       # number of overall miss ticks (Tick)
system.cpu.icache.demandAccesses::cpu.inst    176136639                       # number of demand (read+write) accesses (Count)
system.cpu.icache.demandAccesses::total     176136639                       # number of demand (read+write) accesses (Count)
system.cpu.icache.overallAccesses::cpu.inst    176136639                       # number of overall (read+write) accesses (Count)
system.cpu.icache.overallAccesses::total    176136639                       # number of overall (read+write) accesses (Count)
system.cpu.icache.demandMissRate::cpu.inst     0.000004                       # miss rate for demand accesses (Ratio)
system.cpu.icache.demandMissRate::total      0.000004                       # miss rate for demand accesses (Ratio)
system.cpu.icache.overallMissRate::cpu.inst     0.000004                       # miss rate for overall accesses (Ratio)
system.cpu.icache.overallMissRate::total     0.000004                       # miss rate for overall accesses (Ratio)
system.cpu.icache.demandAvgMissLatency::cpu.inst 79317.344411                       # average overall miss latency in ticks ((Tick/Count))
system.cpu.icache.demandAvgMissLatency::total 79317.344411                       # average overall miss latency in ticks ((Tick/Count))
system.cpu.icache.overallAvgMissLatency::cpu.inst 79317.344411                       # average overall miss latency ((Tick/Count))
system.cpu.icache.overallAvgMissLatency::total 79317.344411                       # average overall miss latency ((Tick/Count))
system.cpu.icache.blockedCycles::no_mshrs            5                       # number of cycles access was blocked (Cycle)
system.cpu.icache.blockedCycles::no_targets            0                       # number of cycles access was blocked (Cycle)
system.cpu.icache.blockedCauses::no_mshrs            1                       # number of times access was blocked (Count)
system.cpu.icache.blockedCauses::no_targets            0                       # number of times access was blocked (Count)
system.cpu.icache.avgBlocked::no_mshrs              5                       # average number of cycles each access was blocked ((Cycle/Count))
system.cpu.icache.avgBlocked::no_targets          nan                       # average number of cycles each access was blocked ((Cycle/Count))
system.cpu.icache.demandMshrHits::cpu.inst           92                       # number of demand (read+write) MSHR hits (Count)
system.cpu.icache.demandMshrHits::total            92                       # number of demand (read+write) MSHR hits (Count)
system.cpu.icache.overallMshrHits::cpu.inst           92                       # number of overall MSHR hits (Count)
system.cpu.icache.overallMshrHits::total           92                       # number of overall MSHR hits (Count)
system.cpu.icache.demandMshrMisses::cpu.inst          570                       # number of demand (read+write) MSHR misses (Count)
system.cpu.icache.demandMshrMisses::total          570                       # number of demand (read+write) MSHR misses (Count)
system.cpu.icache.overallMshrMisses::cpu.inst          570                       # number of overall MSHR misses (Count)
system.cpu.icache.overallMshrMisses::total          570                       # number of overall MSHR misses (Count)
system.cpu.icache.demandMshrMissLatency::cpu.inst     43389057                       # number of demand (read+write) MSHR miss ticks (Tick)
system.cpu.icache.demandMshrMissLatency::total     43389057                       # number of demand (read+write) MSHR miss ticks (Tick)
system.cpu.icache.overallMshrMissLatency::cpu.inst     43389057                       # number of overall MSHR miss ticks (Tick)
system.cpu.icache.overallMshrMissLatency::total     43389057                       # number of overall MSHR miss ticks (Tick)
system.cpu.icache.demandMshrMissRate::cpu.inst     0.000003                       # mshr miss ratio for demand accesses (Ratio)
system.cpu.icache.demandMshrMissRate::total     0.000003                       # mshr miss ratio for demand accesses (Ratio)
system.cpu.icache.overallMshrMissRate::cpu.inst     0.000003                       # mshr miss ratio for overall accesses (Ratio)
system.cpu.icache.overallMshrMissRate::total     0.000003                       # mshr miss ratio for overall accesses (Ratio)
system.cpu.icache.demandAvgMshrMissLatency::cpu.inst 76121.152632                       # average overall mshr miss latency ((Tick/Count))
system.cpu.icache.demandAvgMshrMissLatency::total 76121.152632                       # average overall mshr miss latency ((Tick/Count))
system.cpu.icache.overallAvgMshrMissLatency::cpu.inst 76121.152632                       # average overall mshr miss latency ((Tick/Count))
system.cpu.icache.overallAvgMshrMissLatency::total 76121.152632                       # average overall mshr miss latency ((Tick/Count))
system.cpu.icache.replacements                    123                       # number of replacements (Count)
system.cpu.icache.ReadReq.hits::cpu.inst    176135977                       # number of ReadReq hits (Count)
system.cpu.icache.ReadReq.hits::total       176135977                       # number of ReadReq hits (Count)
system.cpu.icache.ReadReq.misses::cpu.inst          662                       # number of ReadReq misses (Count)
system.cpu.icache.ReadReq.misses::total           662                       # number of ReadReq misses (Count)
system.cpu.icache.ReadReq.missLatency::cpu.inst     52508082                       # number of ReadReq miss ticks (Tick)
system.cpu.icache.ReadReq.missLatency::total     52508082                       # number of ReadReq miss ticks (Tick)
system.cpu.icache.ReadReq.accesses::cpu.inst    176136639                       # number of ReadReq accesses(hits+misses) (Count)
system.cpu.icache.ReadReq.accesses::total    176136639                       # number of ReadReq accesses(hits+misses) (Count)
system.cpu.icache.ReadReq.missRate::cpu.inst     0.000004                       # miss rate for ReadReq accesses (Ratio)
system.cpu.icache.ReadReq.missRate::total     0.000004                       # miss rate for ReadReq accesses (Ratio)
system.cpu.icache.ReadReq.avgMissLatency::cpu.inst 79317.344411                       # average ReadReq miss latency ((Tick/Count))
system.cpu.icache.ReadReq.avgMissLatency::total 79317.344411                       # average ReadReq miss latency ((Tick/Count))
system.cpu.icache.ReadReq.mshrHits::cpu.inst           92                       # number of ReadReq MSHR hits (Count)
system.cpu.icache.ReadReq.mshrHits::total           92                       # number of ReadReq MSHR hits (Count)
system.cpu.icache.ReadReq.mshrMisses::cpu.inst          570                       # number of ReadReq MSHR misses (Count)
system.cpu.icache.ReadReq.mshrMisses::total          570                       # number of ReadReq MSHR misses (Count)
system.cpu.icache.ReadReq.mshrMissLatency::cpu.inst     43389057                       # number of ReadReq MSHR miss ticks (Tick)
system.cpu.icache.ReadReq.mshrMissLatency::total     43389057                       # number of ReadReq MSHR miss ticks (Tick)
system.cpu.icache.ReadReq.mshrMissRate::cpu.inst     0.000003                       # mshr miss rate for ReadReq accesses (Ratio)
system.cpu.icache.ReadReq.mshrMissRate::total     0.000003                       # mshr miss rate for ReadReq accesses (Ratio)
system.cpu.icache.ReadReq.avgMshrMissLatency::cpu.inst 76121.152632                       # average ReadReq mshr miss latency ((Tick/Count))
system.cpu.icache.ReadReq.avgMshrMissLatency::total 76121.152632                       # average ReadReq mshr miss latency ((Tick/Count))
system.cpu.icache.power_state.pwrStateResidencyTicks::UNDEFINED 2728630069704                       # Cumulative time (in ticks) in various power states (Tick)
system.cpu.icache.tags.tagsInUse           413.979115                       # Average ticks per tags in use ((Tick/Count))
system.cpu.icache.tags.totalRefs            176136547                       # Total number of references to valid blocks. (Count)
system.cpu.icache.tags.sampledRefs                570                       # Sample count of references to valid blocks. (Count)
system.cpu.icache.tags.avgRefs           309011.485965                       # Average number of references to valid blocks. ((Count/Count))
system.cpu.icache.tags.warmupTick               85500                       # The tick when the warmup percentage was hit. (Tick)
system.cpu.icache.tags.occupancies::cpu.inst   413.979115                       # Average occupied blocks per tick, per requestor ((Count/Tick))
system.cpu.icache.tags.avgOccs::cpu.inst     0.808553                       # Average percentage of cache occupancy ((Ratio/Tick))
system.cpu.icache.tags.avgOccs::total        0.808553                       # Average percentage of cache occupancy ((Ratio/Tick))
system.cpu.icache.tags.occupanciesTaskId::1024          437                       # Occupied blocks per task id (Count)
system.cpu.icache.tags.ageTaskId_1024::4          437                       # Occupied blocks per task id, per block age (Count)
system.cpu.icache.tags.ratioOccsTaskId::1024     0.853516                       # Ratio of occupied blocks and all blocks, per task id (Ratio)
system.cpu.icache.tags.tagAccesses          704547126                       # Number of tag accesses (Count)
system.cpu.icache.tags.dataAccesses         704547126                       # Number of data accesses (Count)
system.cpu.icache.tags.power_state.pwrStateResidencyTicks::UNDEFINED 2728630069704                       # Cumulative time (in ticks) in various power states (Tick)
system.cpu.iew.idleCycles                           0                       # Number of cycles IEW is idle (Cycle)
system.cpu.iew.squashCycles                   8976297                       # Number of cycles IEW is squashing (Cycle)
system.cpu.iew.blockCycles                  217993633                       # Number of cycles IEW is blocking (Cycle)
system.cpu.iew.unblockCycles                 15321304                       # Number of cycles IEW is unblocking (Cycle)
system.cpu.iew.dispatchedInsts             1391070364                       # Number of instructions dispatched to IQ (Count)
system.cpu.iew.dispSquashedInsts              3175251                       # Number of squashed instructions skipped by dispatch (Count)
system.cpu.iew.dispLoadInsts                337035690                       # Number of dispatched load instructions (Count)
system.cpu.iew.dispStoreInsts               141916281                       # Number of dispatched store instructions (Count)
system.cpu.iew.dispNonSpecInsts               1266353                       # Number of dispatched non-speculative instructions (Count)
system.cpu.iew.iqFullEvents                   2346325                       # Number of times the IQ has become full, causing a stall (Count)
system.cpu.iew.lsqFullEvents                  8043360                       # Number of times the LSQ has become full, causing a stall (Count)
system.cpu.iew.memOrderViolationEvents         865075                       # Number of memory order violations (Count)
system.cpu.iew.predictedTakenIncorrect        4232461                       # Number of branches that were predicted taken incorrectly (Count)
system.cpu.iew.predictedNotTakenIncorrect      5011310                       # Number of branches that were predicted not taken incorrectly (Count)
system.cpu.iew.branchMispredicts              9243771                       # Number of branch mispredicts detected at execute (Count)
system.cpu.iew.instsToCommit               1229294873                       # Cumulative count of insts sent to commit (Count)
system.cpu.iew.writebackCount              1224145511                       # Cumulative count of insts written-back (Count)
system.cpu.iew.producerInst                 677115556                       # Number of instructions producing a value (Count)
system.cpu.iew.consumerInst                1198230686                       # Number of instructions consuming a value (Count)
system.cpu.iew.wbRate                        1.495284                       # Insts written-back per cycle ((Count/Cycle))
system.cpu.iew.wbFanout                      0.565096                       # Average fanout of values written-back ((Count/Count))
system.cpu.lsq0.forwLoads                    13276297                       # Number of loads that had data forwarded from stores (Count)
system.cpu.lsq0.squashedLoads                79802825                       # Number of loads squashed (Count)
system.cpu.lsq0.ignoredResponses               253478                       # Number of memory responses ignored because the instruction is squashed (Count)
system.cpu.lsq0.memOrderViolation              865075                       # Number of memory ordering violations (Count)
system.cpu.lsq0.squashedStores               27554857                       # Number of stores squashed (Count)
system.cpu.lsq0.rescheduledLoads              5034921                       # Number of loads that were rescheduled (Count)
system.cpu.lsq0.blockedByCache                8110090                       # Number of times an access to memory failed due to the cache being blocked (Count)
system.cpu.lsq0.loadToUse::samples          257022175                       # Distribution of cycle latency between the first time a load is issued and its completion (Unspecified)
system.cpu.lsq0.loadToUse::mean              6.887819                       # Distribution of cycle latency between the first time a load is issued and its completion (Unspecified)
system.cpu.lsq0.loadToUse::stdev            10.126083                       # Distribution of cycle latency between the first time a load is issued and its completion (Unspecified)
system.cpu.lsq0.loadToUse::0-9              218002737     84.82%     84.82% # Distribution of cycle latency between the first time a load is issued and its completion (Unspecified)
system.cpu.lsq0.loadToUse::10-19             12292747      4.78%     89.60% # Distribution of cycle latency between the first time a load is issued and its completion (Unspecified)
system.cpu.lsq0.loadToUse::20-29             16495909      6.42%     96.02% # Distribution of cycle latency between the first time a load is issued and its completion (Unspecified)
system.cpu.lsq0.loadToUse::30-39              7341829      2.86%     98.88% # Distribution of cycle latency between the first time a load is issued and its completion (Unspecified)
system.cpu.lsq0.loadToUse::40-49              1355491      0.53%     99.40% # Distribution of cycle latency between the first time a load is issued and its completion (Unspecified)
system.cpu.lsq0.loadToUse::50-59               592764      0.23%     99.63% # Distribution of cycle latency between the first time a load is issued and its completion (Unspecified)
system.cpu.lsq0.loadToUse::60-69               176147      0.07%     99.70% # Distribution of cycle latency between the first time a load is issued and its completion (Unspecified)
[...]
system.mem_ctrl.dram.perBankRdBursts::8        479826                       # Per bank write bursts (Count)
system.mem_ctrl.dram.perBankRdBursts::9        479982                       # Per bank write bursts (Count)
system.mem_ctrl.dram.perBankRdBursts::10       467084                       # Per bank write bursts (Count)
system.mem_ctrl.dram.perBankRdBursts::11       466255                       # Per bank write bursts (Count)
system.mem_ctrl.dram.perBankRdBursts::12       446978                       # Per bank write bursts (Count)
system.mem_ctrl.dram.perBankRdBursts::13       461454                       # Per bank write bursts (Count)
system.mem_ctrl.dram.perBankRdBursts::14       458471                       # Per bank write bursts (Count)
system.mem_ctrl.dram.perBankRdBursts::15       459910                       # Per bank write bursts (Count)
system.mem_ctrl.dram.perBankRdBursts::16       446073                       # Per bank write bursts (Count)
system.mem_ctrl.dram.perBankRdBursts::17       461376                       # Per bank write bursts (Count)
system.mem_ctrl.dram.perBankRdBursts::18       430936                       # Per bank write bursts (Count)
system.mem_ctrl.dram.perBankRdBursts::19       447411                       # Per bank write bursts (Count)
system.mem_ctrl.dram.perBankRdBursts::20       439063                       # Per bank write bursts (Count)
system.mem_ctrl.dram.perBankRdBursts::21       456753                       # Per bank write bursts (Count)
system.mem_ctrl.dram.perBankRdBursts::22       448596                       # Per bank write bursts (Count)
system.mem_ctrl.dram.perBankRdBursts::23       465693                       # Per bank write bursts (Count)
system.mem_ctrl.dram.perBankRdBursts::24       474123                       # Per bank write bursts (Count)
system.mem_ctrl.dram.perBankRdBursts::25       464773                       # Per bank write bursts (Count)
system.mem_ctrl.dram.perBankRdBursts::26       462209                       # Per bank write bursts (Count)
system.mem_ctrl.dram.perBankRdBursts::27       470869                       # Per bank write bursts (Count)
system.mem_ctrl.dram.perBankRdBursts::28       468493                       # Per bank write bursts (Count)
system.mem_ctrl.dram.perBankRdBursts::29       470063                       # Per bank write bursts (Count)
system.mem_ctrl.dram.perBankRdBursts::30       482598                       # Per bank write bursts (Count)
system.mem_ctrl.dram.perBankRdBursts::31       466653                       # Per bank write bursts (Count)
system.mem_ctrl.dram.perBankWrBursts::0        179796                       # Per bank write bursts (Count)
system.mem_ctrl.dram.perBankWrBursts::1        172912                       # Per bank write bursts (Count)
system.mem_ctrl.dram.perBankWrBursts::2        180284                       # Per bank write bursts (Count)
system.mem_ctrl.dram.perBankWrBursts::3        172748                       # Per bank write bursts (Count)
system.mem_ctrl.dram.perBankWrBursts::4        178766                       # Per bank write bursts (Count)
system.mem_ctrl.dram.perBankWrBursts::5        172114                       # Per bank write bursts (Count)
system.mem_ctrl.dram.perBankWrBursts::6        180190                       # Per bank write bursts (Count)
system.mem_ctrl.dram.perBankWrBursts::7        171606                       # Per bank write bursts (Count)
system.mem_ctrl.dram.perBankWrBursts::8        179848                       # Per bank write bursts (Count)
system.mem_ctrl.dram.perBankWrBursts::9        179989                       # Per bank write bursts (Count)
system.mem_ctrl.dram.perBankWrBursts::10       172405                       # Per bank write bursts (Count)
system.mem_ctrl.dram.perBankWrBursts::11       179249                       # Per bank write bursts (Count)
system.mem_ctrl.dram.perBankWrBursts::12       171845                       # Per bank write bursts (Count)
system.mem_ctrl.dram.perBankWrBursts::13       179166                       # Per bank write bursts (Count)
system.mem_ctrl.dram.perBankWrBursts::14       177004                       # Per bank write bursts (Count)
system.mem_ctrl.dram.perBankWrBursts::15       179165                       # Per bank write bursts (Count)
system.mem_ctrl.dram.perBankWrBursts::16       172880                       # Per bank write bursts (Count)
system.mem_ctrl.dram.perBankWrBursts::17       178988                       # Per bank write bursts (Count)
system.mem_ctrl.dram.perBankWrBursts::18       163602                       # Per bank write bursts (Count)
system.mem_ctrl.dram.perBankWrBursts::19       178713                       # Per bank write bursts (Count)
system.mem_ctrl.dram.perBankWrBursts::20       163675                       # Per bank write bursts (Count)
system.mem_ctrl.dram.perBankWrBursts::21       180874                       # Per bank write bursts (Count)
system.mem_ctrl.dram.perBankWrBursts::22       172689                       # Per bank write bursts (Count)
system.mem_ctrl.dram.perBankWrBursts::23       179468                       # Per bank write bursts (Count)
system.mem_ctrl.dram.perBankWrBursts::24       172788                       # Per bank write bursts (Count)
system.mem_ctrl.dram.perBankWrBursts::25       179923                       # Per bank write bursts (Count)
system.mem_ctrl.dram.perBankWrBursts::26       172665                       # Per bank write bursts (Count)
system.mem_ctrl.dram.perBankWrBursts::27       180208                       # Per bank write bursts (Count)
system.mem_ctrl.dram.perBankWrBursts::28       179890                       # Per bank write bursts (Count)
system.mem_ctrl.dram.perBankWrBursts::29       172475                       # Per bank write bursts (Count)
system.mem_ctrl.dram.perBankWrBursts::30       179434                       # Per bank write bursts (Count)
system.mem_ctrl.dram.perBankWrBursts::31       172127                       # Per bank write bursts (Count)
system.mem_ctrl.dram.totQLat             292355444024                       # Total ticks spent queuing (Tick)
system.mem_ctrl.dram.totBusLat            49608278748                       # Total ticks spent in databus transfers (Tick)
system.mem_ctrl.dram.totMemAccLat        552784019012                       # Total ticks spent from burst creation until serviced by the DRAM (Tick)
system.mem_ctrl.dram.avgQLat                 19636.41                       # Average queueing delay per DRAM burst ((Tick/Count))
system.mem_ctrl.dram.avgBusLat                3332.00                       # Average bus latency per DRAM burst ((Tick/Count))
system.mem_ctrl.dram.avgMemAccLat            37128.41                       # Average memory access latency per DRAM burst ((Tick/Count))
system.mem_ctrl.dram.readRowHits              6879993                       # Number of row buffer hits during reads (Count)
system.mem_ctrl.dram.writeRowHits             2809022                       # Number of row buffer hits during writes (Count)
system.mem_ctrl.dram.readRowHitRate             46.21                       # Row buffer hit rate for reads (Ratio)
system.mem_ctrl.dram.writeRowHitRate            49.92                       # Row buffer hit rate for writes (Ratio)
system.mem_ctrl.dram.bytesPerActivate::samples     10826906                       # Bytes accessed per row activation (Byte)
system.mem_ctrl.dram.bytesPerActivate::mean   121.273682                       # Bytes accessed per row activation (Byte)
system.mem_ctrl.dram.bytesPerActivate::gmean    85.001483                       # Bytes accessed per row activation (Byte)
system.mem_ctrl.dram.bytesPerActivate::stdev   173.409302                       # Bytes accessed per row activation (Byte)
system.mem_ctrl.dram.bytesPerActivate::0-127      8563414     79.09%     79.09% # Bytes accessed per row activation (Byte)
system.mem_ctrl.dram.bytesPerActivate::128-255      1279865     11.82%     90.91% # Bytes accessed per row activation (Byte)
system.mem_ctrl.dram.bytesPerActivate::256-383       256006      2.36%     93.28% # Bytes accessed per row activation (Byte)
system.mem_ctrl.dram.bytesPerActivate::384-511       187538      1.73%     95.01% # Bytes accessed per row activation (Byte)
system.mem_ctrl.dram.bytesPerActivate::512-639       137482      1.27%     96.28% # Bytes accessed per row activation (Byte)
system.mem_ctrl.dram.bytesPerActivate::640-767        92127      0.85%     97.13% # Bytes accessed per row activation (Byte)
system.mem_ctrl.dram.bytesPerActivate::768-895        67961      0.63%     97.76% # Bytes accessed per row activation (Byte)
system.mem_ctrl.dram.bytesPerActivate::896-1023        48845      0.45%     98.21% # Bytes accessed per row activation (Byte)
system.mem_ctrl.dram.bytesPerActivate::1024-1151       193668      1.79%    100.00% # Bytes accessed per row activation (Byte)
system.mem_ctrl.dram.bytesPerActivate::total     10826906                       # Bytes accessed per row activation (Byte)
system.mem_ctrl.dram.bytesRead              952860096                       # Total bytes read (Byte)
system.mem_ctrl.dram.bytesWritten           360159104                       # Total bytes written (Byte)
system.mem_ctrl.dram.avgRdBW               349.208237                       # Average DRAM read bandwidth in MiBytes/s ((Byte/Second))
system.mem_ctrl.dram.avgWrBW               131.992646                       # Average DRAM write bandwidth in MiBytes/s ((Byte/Second))
system.mem_ctrl.dram.peakBW                  19207.00                       # Theoretical peak bandwidth in MiByte/s ((Byte/Second))
system.mem_ctrl.dram.busUtil                     2.51                       # Data bus utilization in percentage (Ratio)
system.mem_ctrl.dram.busUtilRead                 1.82                       # Data bus utilization in percentage for reads (Ratio)
system.mem_ctrl.dram.busUtilWrite                0.69                       # Data bus utilization in percentage for writes (Ratio)
system.mem_ctrl.dram.pageHitRate                47.23                       # Row buffer hit rate, read and write combined (Ratio)
system.mem_ctrl.dram.power_state.pwrStateResidencyTicks::UNDEFINED 2728630069704                       # Cumulative time (in ticks) in various power states (Tick)
system.mem_ctrl.dram.rank0.actEnergy     16921609207.775515                       # Energy for activate commands per rank (pJ) (Joule)
system.mem_ctrl.dram.rank0.preEnergy     22497045912.666225                       # Energy for precharge commands per rank (pJ) (Joule)
system.mem_ctrl.dram.rank0.readEnergy    31685162319.406235                       # Energy for read commands per rank (pJ) (Joule)
system.mem_ctrl.dram.rank0.writeEnergy   10625595181.153402                       # Energy for write commands per rank (pJ) (Joule)
system.mem_ctrl.dram.rank0.refreshEnergy 485519443227.630310                       # Energy for refresh commands per rank (pJ) (Joule)
system.mem_ctrl.dram.rank0.actBackEnergy 1407808637961.578857                       # Energy for active background per rank (pJ) (Joule)
system.mem_ctrl.dram.rank0.preBackEnergy 699543637837.396851                       # Energy for precharge background per rank (pJ) (Joule)
system.mem_ctrl.dram.rank0.actPowerDownEnergy            0                       # Energy for active power-down per rank (pJ) (Joule)
system.mem_ctrl.dram.rank0.prePowerDownEnergy            0                       # Energy for precharge power-down per rank (pJ) (Joule)
system.mem_ctrl.dram.rank0.selfRefreshEnergy            0                       # Energy for self refresh per rank (pJ) (Joule)
system.mem_ctrl.dram.rank0.totalEnergy   2674601131652.683105                       # Total energy per rank (pJ) (Joule)
system.mem_ctrl.dram.rank0.averagePower    980.199244                       # Core power per rank (mW) (Watt)
system.mem_ctrl.dram.rank0.totalIdleTime            0                       # Total Idle time Per DRAM Rank (Tick)
system.mem_ctrl.dram.rank0.pwrStateTime::IDLE 1061633791647                       # Time in different power states (Tick)
system.mem_ctrl.dram.rank0.pwrStateTime::REF 122661000000                       # Time in different power states (Tick)
system.mem_ctrl.dram.rank0.pwrStateTime::SREF            0                       # Time in different power states (Tick)
system.mem_ctrl.dram.rank0.pwrStateTime::PRE_PDN            0                       # Time in different power states (Tick)
system.mem_ctrl.dram.rank0.pwrStateTime::ACT 1544335278057                       # Time in different power states (Tick)
system.mem_ctrl.dram.rank0.pwrStateTime::ACT_PDN            0                       # Time in different power states (Tick)
system.mem_ctrl.dram.rank1.actEnergy     16844838008.543888                       # Energy for activate commands per rank (pJ) (Joule)
system.mem_ctrl.dram.rank1.preEnergy     22394996172.897221                       # Energy for precharge commands per rank (pJ) (Joule)
system.mem_ctrl.dram.rank1.readEnergy    30940328772.046616                       # Energy for read commands per rank (pJ) (Joule)
system.mem_ctrl.dram.rank1.writeEnergy   10525288439.905306                       # Energy for write commands per rank (pJ) (Joule)
system.mem_ctrl.dram.rank1.refreshEnergy 485519443227.630310                       # Energy for refresh commands per rank (pJ) (Joule)
system.mem_ctrl.dram.rank1.actBackEnergy 1406823578271.182373                       # Energy for active background per rank (pJ) (Joule)
system.mem_ctrl.dram.rank1.preBackEnergy 700300519859.458862                       # Energy for precharge background per rank (pJ) (Joule)
system.mem_ctrl.dram.rank1.actPowerDownEnergy            0                       # Energy for active power-down per rank (pJ) (Joule)
system.mem_ctrl.dram.rank1.prePowerDownEnergy            0                       # Energy for precharge power-down per rank (pJ) (Joule)
system.mem_ctrl.dram.rank1.selfRefreshEnergy            0                       # Energy for self refresh per rank (pJ) (Joule)
system.mem_ctrl.dram.rank1.totalEnergy   2673348992756.676270                       # Total energy per rank (pJ) (Joule)
system.mem_ctrl.dram.rank1.averagePower    979.740355                       # Core power per rank (mW) (Watt)
system.mem_ctrl.dram.rank1.totalIdleTime            0                       # Total Idle time Per DRAM Rank (Tick)
system.mem_ctrl.dram.rank1.pwrStateTime::IDLE 1062937267708                       # Time in different power states (Tick)
system.mem_ctrl.dram.rank1.pwrStateTime::REF 122661000000                       # Time in different power states (Tick)
system.mem_ctrl.dram.rank1.pwrStateTime::SREF            0                       # Time in different power states (Tick)
system.mem_ctrl.dram.rank1.pwrStateTime::PRE_PDN            0                       # Time in different power states (Tick)
system.mem_ctrl.dram.rank1.pwrStateTime::ACT 1543031801996                       # Time in different power states (Tick)
system.mem_ctrl.dram.rank1.pwrStateTime::ACT_PDN            0                       # Time in different power states (Tick)
system.mem_ctrl.power_state.pwrStateResidencyTicks::UNDEFINED 2728630069704                       # Cumulative time (in ticks) in various power states (Tick)
system.membus.transDist::ReadResp            14580389                       # Transaction distribution (Count)
system.membus.transDist::WritebackDirty       5627537                       # Transaction distribution (Count)
system.membus.transDist::CleanEvict           9234097                       # Transaction distribution (Count)
system.membus.transDist::UpgradeReq                 7                       # Transaction distribution (Count)
system.membus.transDist::ReadExReq             314749                       # Transaction distribution (Count)
system.membus.transDist::ReadExResp            314749                       # Transaction distribution (Count)
system.membus.transDist::ReadSharedReq       14580389                       # Transaction distribution (Count)
system.membus.pktCount_system.l2cache.mem_side_port::system.mem_ctrl.port     44651917                       # Packet count per connected requestor and responder (Count)
system.membus.pktCount::total                44651917                       # Packet count per connected requestor and responder (Count)
system.membus.pktSize_system.l2cache.mem_side_port::system.mem_ctrl.port   1313451200                       # Cumulative packet size per connected requestor and responder (Byte)
system.membus.pktSize::total               1313451200                       # Cumulative packet size per connected requestor and responder (Byte)
system.membus.snoops                                0                       # Total snoops (Count)
system.membus.snoopTraffic                          0                       # Total snoop traffic (Byte)
system.membus.snoopFanout::samples           14895145                       # Request fanout histogram (Count)
system.membus.snoopFanout::mean                     0                       # Request fanout histogram (Count)
system.membus.snoopFanout::stdev                    0                       # Request fanout histogram (Count)
system.membus.snoopFanout::underflows               0      0.00%      0.00% # Request fanout histogram (Count)
system.membus.snoopFanout::0                 14895145    100.00%    100.00% # Request fanout histogram (Count)
system.membus.snoopFanout::1                        0      0.00%    100.00% # Request fanout histogram (Count)
system.membus.snoopFanout::overflows                0      0.00%    100.00% # Request fanout histogram (Count)
system.membus.snoopFanout::min_value                0                       # Request fanout histogram (Count)
system.membus.snoopFanout::max_value                0                       # Request fanout histogram (Count)
system.membus.snoopFanout::total             14895145                       # Request fanout histogram (Count)
system.membus.power_state.pwrStateResidencyTicks::UNDEFINED 2728630069704                       # Cumulative time (in ticks) in various power states (Tick)
system.membus.reqLayer0.occupancy         29559484727                       # Layer occupancy (ticks) (Tick)
system.membus.reqLayer0.utilization               0.0                       # Layer utilization (Ratio)
system.membus.respLayer0.occupancy        39372439331                       # Layer occupancy (ticks) (Tick)
system.membus.respLayer0.utilization              0.0                       # Layer utilization (Ratio)
system.membus.snoop_filter.totRequests       29756779                       # Total number of requests made to the snoop filter. (Count)
system.membus.snoop_filter.hitSingleRequests     14861942                       # Number of requests hitting in the snoop filter with a single holder of the requested data. (Count)
system.membus.snoop_filter.hitMultiRequests            0                       # Number of requests hitting in the snoop filter with multiple (>1) holders of the requested data. (Count)
system.membus.snoop_filter.totSnoops                0                       # Total number of snoops made to the snoop filter. (Count)
system.membus.snoop_filter.hitSingleSnoops            0                       # Number of snoops hitting in the snoop filter with a single holder of the requested data. (Count)
system.membus.snoop_filter.hitMultiSnoops            0                       # Number of snoops hitting in the snoop filter with multiple (>1) holders of the requested data. (Count)
system.workload.inst.arm                            0                       # number of arm instructions executed (Count)
system.workload.inst.quiesce                        0                       # number of quiesce instructions executed (Count)

---------- End Simulation Statistics   ----------
