
---------- Begin Simulation Statistics ----------
simSeconds                                   1.144649                       # Number of seconds simulated (Second)
simTicks                                 1144649474256                       # Number of ticks simulated (Tick)
finalTick                                1144649474256                       # Number of ticks from beginning of simulation (restored from checkpoints and never reset) (Tick)
simFreq                                  1000000000000                       # The number of ticks per simulated second ((Tick/Second))
hostSeconds                                   5093.48                       # Real time elapsed on the host (Second)
hostTickRate                                224728540                       # The number of ticks simulated per host second (ticks/s) ((Tick/Second))
hostMemory                                    2287740                       # Number of bytes of host memory used (Byte)
simInsts                                   1000000000                       # Number of instructions simulated (Count)
simOps                                     1084388561                       # Number of ops (including micro ops) simulated (Count)
hostInstRate                                   196330                       # Simulator instruction rate (inst/s) ((Count/Second))
hostOpRate                                     212898                       # Simulator op (including micro ops) rate (op/s) ((Count/Second))
system.clk_domain.clock                           500                       # Clock period in ticks (Tick)
system.clk_domain.voltage_domain.voltage            1                       # Voltage in Volts (Volt)
system.cpu.numCycles                       2058722077                       # Number of cpu cycles simulated (Cycle)
system.cpu.numWorkItemsStarted                      0                       # Number of work items this cpu started (Count)
system.cpu.numWorkItemsCompleted                    0                       # Number of work items this cpu completed (Count)
system.cpu.instsAdded                      1414912625                       # Number of instructions added to the IQ (excludes non-spec) (Count)
system.cpu.nonSpecInstsAdded                  3801057                       # Number of non-speculative instructions added to the IQ (Count)
system.cpu.instsIssued                     1395214406                       # Number of instructions issued (Count)
system.cpu.squashedInstsIssued                9679805                       # Number of squashed instructions issued (Count)
system.cpu.squashedInstsExamined            334325055                       # Number of squashed instructions iterated over during squash; mainly for profiling (Count)
system.cpu.squashedOperandsExamined         777356114                       # Number of squashed operands that are examined and possibly removed from graph (Count)
system.cpu.squashedNonSpecRemoved               11617                       # Number of squashed non-spec instructions that were removed (Count)
system.cpu.numIssuedDist::samples          2058687593                       # Number of insts issued each cycle (Count)
system.cpu.numIssuedDist::mean               0.677720                       # Number of insts issued each cycle (Count)
system.cpu.numIssuedDist::stdev              1.513933                       # Number of insts issued each cycle (Count)
system.cpu.numIssuedDist::underflows                0      0.00%      0.00% # Number of insts issued each cycle (Count)
system.cpu.numIssuedDist::0                1580240313     76.76%     76.76% # Number of insts issued each cycle (Count)
system.cpu.numIssuedDist::1                 141520883      6.87%     83.63% # Number of insts issued each cycle (Count)
system.cpu.numIssuedDist::2                  96834100      4.70%     88.34% # Number of insts issued each cycle (Count)
system.cpu.numIssuedDist::3                  76004150      3.69%     92.03% # Number of insts issued each cycle (Count)
system.cpu.numIssuedDist::4                  70056372      3.40%     95.43% # Number of insts issued each cycle (Count)
system.cpu.numIssuedDist::5                  44158107      2.14%     97.58% # Number of insts issued each cycle (Count)
system.cpu.numIssuedDist::6                  27143221      1.32%     98.90% # Number of insts issued each cycle (Count)
system.cpu.numIssuedDist::7                  13706052      0.67%     99.56% # Number of insts issued each cycle (Count)
system.cpu.numIssuedDist::8                   9024395      0.44%    100.00% # Number of insts issued each cycle (Count)
system.cpu.numIssuedDist::overflows                 0      0.00%    100.00% # Number of insts issued each cycle (Count)
system.cpu.numIssuedDist::min_value                 0                       # Number of insts issued each cycle (Count)
system.cpu.numIssuedDist::max_value                 8                       # Number of insts issued each cycle (Count)
system.cpu.numIssuedDist::total            2058687593                       # Number of insts issued each cycle (Count)
system.cpu.statFuBusy::No_OpClass                   0      0.00%      0.00% # attempts to use FU when none available (Count)
system.cpu.statFuBusy::IntAlu                 1084665      2.46%      2.46% # attempts to use FU when none available (Count)
system.cpu.statFuBusy::IntMult                      0      0.00%      2.46% # attempts to use FU when none available (Count)
system.cpu.statFuBusy::IntDiv                       0      0.00%      2.46% # attempts to use FU when none available (Count)
system.cpu.statFuBusy::FloatAdd                     0      0.00%      2.46% # attempts to use FU when none available (Count)
system.cpu.statFuBusy::FloatCmp                     0      0.00%      2.46% # attempts to use FU when none available (Count)
system.cpu.statFuBusy::FloatCvt                     0      0.00%      2.46% # attempts to use FU when none available (Count)
system.cpu.statFuBusy::FloatMult                    0      0.00%      2.46% # attempts to use FU when none available (Count)
system.cpu.statFuBusy::FloatMultAcc                 0      0.00%      2.46% # attempts to use FU when none available (Count)
system.cpu.statFuBusy::FloatDiv                     0      0.00%      2.46% # attempts to use FU when none available (Count)
system.cpu.statFuBusy::FloatMisc                    0      0.00%      2.46% # attempts to use FU when none available (Count)
system.cpu.statFuBusy::FloatSqrt                    0      0.00%      2.46% # attempts to use FU when none available (Count)
system.cpu.statFuBusy::SimdAdd                      0      0.00%      2.46% # attempts to use FU when none available (Count)
system.cpu.statFuBusy::SimdAddAcc                   0      0.00%      2.46% # attempts to use FU when none available (Count)
system.cpu.statFuBusy::SimdAlu                      0      0.00%      2.46% # attempts to use FU when none available (Count)
system.cpu.statFuBusy::SimdCmp                      0      0.00%      2.46% # attempts to use FU when none available (Count)
system.cpu.statFuBusy::SimdCvt                      0      0.00%      2.46% # attempts to use FU when none available (Count)
system.cpu.statFuBusy::SimdMisc                     0      0.00%      2.46% # attempts to use FU when none available (Count)
system.cpu.statFuBusy::SimdMult                     0      0.00%      2.46% # attempts to use FU when none available (Count)
system.cpu.statFuBusy::SimdMultAcc                  0      0.00%      2.46% # attempts to use FU when none available (Count)
system.cpu.statFuBusy::SimdShift                    0      0.00%      2.46% # attempts to use FU when none available (Count)
system.cpu.statFuBusy::SimdShiftAcc                 0      0.00%      2.46% # attempts to use FU when none available (Count)
system.cpu.statFuBusy::SimdDiv                      0      0.00%      2.46% # attempts to use FU when none available (Count)
system.cpu.statFuBusy::SimdSqrt                     0      0.00%      2.46% # attempts to use FU when none available (Count)
system.cpu.statFuBusy::SimdFloatAdd                 0      0.00%      2.46% # attempts to use FU when none available (Count)
system.cpu.statFuBusy::SimdFloatAlu                 0      0.00%      2.46% # attempts to use FU when none available (Count)
system.cpu.statFuBusy::SimdFloatCmp                 0      0.00%      2.46% # attempts to use FU when none available (Count)
system.cpu.statFuBusy::SimdFloatCvt                 0      0.00%      2.46% # attempts to use FU when none available (Count)
system.cpu.statFuBusy::SimdFloatDiv                 0      0.00%      2.46% # attempts to use FU when none available (Count)
system.cpu.statFuBusy::SimdFloatMisc                0      0.00%      2.46% # attempts to use FU when none available (Count)
system.cpu.statFuBusy::SimdFloatMult                0      0.00%      2.46% # attempts to use FU when none available (Count)
system.cpu.statFuBusy::SimdFloatMultAcc             0      0.00%      2.46% # attempts to use FU when none available (Count)
system.cpu.statFuBusy::SimdFloatSqrt                0      0.00%      2.46% # attempts to use FU when none available (Count)
system.cpu.statFuBusy::SimdReduceAdd                0      0.00%      2.46% # attempts to use FU when none available (Count)
system.cpu.statFuBusy::SimdReduceAlu                0      0.00%      2.46% # attempts to use FU when none available (Count)
system.cpu.statFuBusy::SimdReduceCmp                0      0.00%      2.46% # attempts to use FU when none available (Count)
system.cpu.statFuBusy::SimdFloatReduceAdd            0      0.00%      2.46% # attempts to use FU when none available (Count)
system.cpu.statFuBusy::SimdFloatReduceCmp            0      0.00%      2.46% # attempts to use FU when none available (Count)
system.cpu.statFuBusy::SimdAes                      0      0.00%      2.46% # attempts to use FU when none available (Count)
system.cpu.statFuBusy::SimdAesMix                   0      0.00%      2.46% # attempts to use FU when none available (Count)
system.cpu.statFuBusy::SimdSha1Hash                 0      0.00%      2.46% # attempts to use FU when none available (Count)
system.cpu.statFuBusy::SimdSha1Hash2                0      0.00%      2.46% # attempts to use FU when none available (Count)
system.cpu.statFuBusy::SimdSha256Hash               0      0.00%      2.46% # attempts to use FU when none available (Count)
system.cpu.statFuBusy::SimdSha256Hash2              0      0.00%      2.46% # attempts to use FU when none available (Count)
system.cpu.statFuBusy::SimdShaSigma2                0      0.00%      2.46% # attempts to use FU when none available (Count)
system.cpu.statFuBusy::SimdShaSigma3                0      0.00%      2.46% # attempts to use FU when none available (Count)
system.cpu.statFuBusy::SimdPredAlu                  0      0.00%      2.46% # attempts to use FU when none available (Count)
system.cpu.statFuBusy::MemRead               30541562     69.19%     71.64% # attempts to use FU when none available (Count)
system.cpu.statFuBusy::MemWrite              12516799     28.36%    100.00% # attempts to use FU when none available (Count)
system.cpu.statFuBusy::FloatMemRead                 0      0.00%    100.00% # attempts to use FU when none available (Count)
system.cpu.statFuBusy::FloatMemWrite                0      0.00%    100.00% # attempts to use FU when none available (Count)
system.cpu.statFuBusy::IprAccess                    0      0.00%    100.00% # attempts to use FU when none available (Count)
system.cpu.statFuBusy::InstPrefetch                 0      0.00%    100.00% # attempts to use FU when none available (Count)
system.cpu.statIssuedInstType_0::No_OpClass            5      0.00%      0.00% # Number of instructions issued per FU type, per thread (Count)
system.cpu.statIssuedInstType_0::IntAlu     825429205     59.16%     59.16% # Number of instructions issued per FU type, per thread (Count)
system.cpu.statIssuedInstType_0::IntMult      2714577      0.19%     59.36% # Number of instructions issued per FU type, per thread (Count)
system.cpu.statIssuedInstType_0::IntDiv             0      0.00%     59.36% # Number of instructions issued per FU type, per thread (Count)
system.cpu.statIssuedInstType_0::FloatAdd            0      0.00%     59.36% # Number of instructions issued per FU type, per thread (Count)
system.cpu.statIssuedInstType_0::FloatCmp            0      0.00%     59.36% # Number of instructions issued per FU type, per thread (Count)
system.cpu.statIssuedInstType_0::FloatCvt            0      0.00%     59.36% # Number of instructions issued per FU type, per thread (Count)
system.cpu.statIssuedInstType_0::FloatMult            0      0.00%     59.36% # Number of instructions issued per FU type, per thread (Count)
system.cpu.statIssuedInstType_0::FloatMultAcc            0      0.00%     59.36% # Number of instructions issued per FU type, per thread (Count)
system.cpu.statIssuedInstType_0::FloatDiv            0      0.00%     59.36% # Number of instructions issued per FU type, per thread (Count)
system.cpu.statIssuedInstType_0::FloatMisc            0      0.00%     59.36% # Number of instructions issued per FU type, per thread (Count)
system.cpu.statIssuedInstType_0::FloatSqrt            0      0.00%     59.36% # Number of instructions issued per FU type, per thread (Count)
system.cpu.statIssuedInstType_0::SimdAdd            0      0.00%     59.36% # Number of instructions issued per FU type, per thread (Count)
system.cpu.statIssuedInstType_0::SimdAddAcc            0      0.00%     59.36% # Number of instructions issued per FU type, per thread (Count)
system.cpu.statIssuedInstType_0::SimdAlu            0      0.00%     59.36% # Number of instructions issued per FU type, per thread (Count)
system.cpu.statIssuedInstType_0::SimdCmp            0      0.00%     59.36% # Number of instructions issued per FU type, per thread (Count)
system.cpu.statIssuedInstType_0::SimdCvt            0      0.00%     59.36% # Number of instructions issued per FU type, per thread (Count)
system.cpu.statIssuedInstType_0::SimdMisc            0      0.00%     59.36% # Number of instructions issued per FU type, per thread (Count)
system.cpu.statIssuedInstType_0::SimdMult            0      0.00%     59.36% # Number of instructions issued per FU type, per thread (Count)
system.cpu.statIssuedInstType_0::SimdMultAcc            0      0.00%     59.36% # Number of instructions issued per FU type, per thread (Count)
system.cpu.statIssuedInstType_0::SimdShift            0      0.00%     59.36% # Number of instructions issued per FU type, per thread (Count)
system.cpu.statIssuedInstType_0::SimdShiftAcc            0      0.00%     59.36% # Number of instructions issued per FU type, per thread (Count)
system.cpu.statIssuedInstType_0::SimdDiv            0      0.00%     59.36% # Number of instructions issued per FU type, per thread (Count)
system.cpu.statIssuedInstType_0::SimdSqrt            0      0.00%     59.36% # Number of instructions issued per FU type, per thread (Count)
system.cpu.statIssuedInstType_0::SimdFloatAdd            0      0.00%     59.36% # Number of instructions issued per FU type, per thread (Count)
system.cpu.statIssuedInstType_0::SimdFloatAlu            0      0.00%     59.36% # Number of instructions issued per FU type, per thread (Count)
system.cpu.statIssuedInstType_0::SimdFloatCmp            0      0.00%     59.36% # Number of instructions issued per FU type, per thread (Count)
system.cpu.statIssuedInstType_0::SimdFloatCvt            0      0.00%     59.36% # Number of instructions issued per FU type, per thread (Count)
system.cpu.statIssuedInstType_0::SimdFloatDiv            0      0.00%     59.36% # Number of instructions issued per FU type, per thread (Count)
system.cpu.statIssuedInstType_0::SimdFloatMisc            3      0.00%     59.36% # Number of instructions issued per FU type, per thread (Count)
system.cpu.statIssuedInstType_0::SimdFloatMult            0      0.00%     59.36% # Number of instructions issued per FU type, per thread (Count)
system.cpu.statIssuedInstType_0::SimdFloatMultAcc            0      0.00%     59.36% # Number of instructions issued per FU type, per thread (Count)
system.cpu.statIssuedInstType_0::SimdFloatSqrt            0      0.00%     59.36% # Number of instructions issued per FU type, per thread (Count)
system.cpu.statIssuedInstType_0::SimdReduceAdd            0      0.00%     59.36% # Number of instructions issued per FU type, per thread (Count)
system.cpu.statIssuedInstType_0::SimdReduceAlu            0      0.00%     59.36% # Number of instructions issued per FU type, per thread (Count)
system.cpu.statIssuedInstType_0::SimdReduceCmp            0      0.00%     59.36% # Number of instructions issued per FU type, per thread (Count)
system.cpu.statIssuedInstType_0::SimdFloatReduceAdd            0      0.00%     59.36% # Number of instructions issued per FU type, per thread (Count)
system.cpu.statIssuedInstType_0::SimdFloatReduceCmp            0      0.00%     59.36% # Number of instructions issued per FU type, per thread (Count)
system.cpu.statIssuedInstType_0::SimdAes            0      0.00%     59.36% # Number of instructions issued per FU type, per thread (Count)
system.cpu.statIssuedInstType_0::SimdAesMix            0      0.00%     59.36% # Number of instructions issued per FU type, per thread (Count)
system.cpu.statIssuedInstType_0::SimdSha1Hash            0      0.00%     59.36% # Number of instructions issued per FU type, per thread (Count)
system.cpu.statIssuedInstType_0::SimdSha1Hash2            0      0.00%     59.36% # Number of instructions issued per FU type, per thread (Count)
system.cpu.statIssuedInstType_0::SimdSha256Hash            0      0.00%     59.36% # Number of instructions issued per FU type, per thread (Count)
system.cpu.statIssuedInstType_0::SimdSha256Hash2            0      0.00%     59.36% # Number of instructions issued per FU type, per thread (Count)
system.cpu.statIssuedInstType_0::SimdShaSigma2            0      0.00%     59.36% # Number of instructions issued per FU type, per thread (Count)
system.cpu.statIssuedInstType_0::SimdShaSigma3            0      0.00%     59.36% # Number of instructions issued per FU type, per thread (Count)
system.cpu.statIssuedInstType_0::SimdPredAlu            0      0.00%     59.36% # Number of instructions issued per FU type, per thread (Count)
system.cpu.statIssuedInstType_0::MemRead    435522857     31.22%     90.57% # Number of instructions issued per FU type, per thread (Count)
system.cpu.statIssuedInstType_0::MemWrite    131547759      9.43%    100.00% # Number of instructions issued per FU type, per thread (Count)
system.cpu.statIssuedInstType_0::FloatMemRead            0      0.00%    100.00% # Number of instructions issued per FU type, per thread (Count)
system.cpu.statIssuedInstType_0::FloatMemWrite            0      0.00%    100.00% # Number of instructions issued per FU type, per thread (Count)
system.cpu.statIssuedInstType_0::IprAccess            0      0.00%    100.00% # Number of instructions issued per FU type, per thread (Count)
system.cpu.statIssuedInstType_0::InstPrefetch            0      0.00%    100.00% # Number of instructions issued per FU type, per thread (Count)
system.cpu.statIssuedInstType_0::total     1395214406                       # Number of instructions issued per FU type, per thread (Count)
system.cpu.issueRate                         0.677709                       # Inst issue rate ((Count/Cycle))
system.cpu.fuBusy                            44143026                       # FU busy when requested (Count)
system.cpu.fuBusyRate                        0.031639                       # FU busy rate (busy events/executed inst) ((Count/Count))
system.cpu.intInstQueueReads               4902939236                       # Number of integer instruction queue reads (Count)
system.cpu.intInstQueueWrites              1753907298                       # Number of integer instruction queue writes (Count)
system.cpu.intInstQueueWakeupAccesses      1238162704                       # Number of integer instruction queue wakeup accesses (Count)
system.cpu.fpInstQueueReads                         0                       # Number of floating instruction queue reads (Count)
system.cpu.fpInstQueueWrites                        0                       # Number of floating instruction queue writes (Count)
system.cpu.fpInstQueueWakeupAccesses                0                       # Number of floating instruction queue wakeup accesses (Count)
system.cpu.vecInstQueueReads                        0                       # Number of vector instruction queue reads (Count)
system.cpu.vecInstQueueWrites                       0                       # Number of vector instruction queue writes (Count)
system.cpu.vecInstQueueWakeupAccesses               0                       # Number of vector instruction queue wakeup accesses (Count)
system.cpu.intAluAccesses                  1439357427                       # Number of integer alu accesses (Count)
system.cpu.fpAluAccesses                            0                       # Number of floating point alu accesses (Count)
system.cpu.vecAluAccesses                           0                       # Number of vector alu accesses (Count)
system.cpu.numInsts                        1382864569                       # Number of executed instructions (Count)
system.cpu.numLoadInsts                     430691135                       # Number of load instructions executed (Count)
system.cpu.numSquashedInsts                  12349837                       # Number of squashed instructions skipped in execute (Count)
system.cpu.numSwp                                   0                       # Number of swp insts executed (Count)
system.cpu.numNop                                  31                       # Number of nop insts executed (Count)
system.cpu.numRefs                          560496852                       # Number of memory reference insts executed (Count)
system.cpu.numBranches                      268240982                       # Number of branches executed (Count)
system.cpu.numStoreInsts                    129805717                       # Number of stores executed (Count)
system.cpu.numRate                           0.671710                       # Inst execution rate ((Count/Cycle))
system.cpu.timesIdled                             364                       # Number of times that the entire CPU went into an idle state and unscheduled itself (Count)
system.cpu.idleCycles                           34484                       # Total number of cycles that the CPU has spent unscheduled due to idling (Cycle)
system.cpu.committedInsts                  1000000000                       # Number of Instructions Simulated (Count)
system.cpu.committedOps                    1084388561                       # Number of Ops (including micro ops) Simulated (Count)
system.cpu.cpi                               2.058722                       # CPI: Cycles Per Instruction ((Cycle/Count))
system.cpu.totalCpi                          2.058722                       # CPI: Total CPI of All Threads ((Cycle/Count))
system.cpu.ipc                               0.485738                       # IPC: Instructions Per Cycle ((Count/Cycle))
system.cpu.totalIpc                          0.485738                       # IPC: Total IPC of All Threads ((Count/Cycle))
system.cpu.intRegfileReads                 1408298939                       # Number of integer regfile reads (Count)
system.cpu.intRegfileWrites                 650751239                       # Number of integer regfile writes (Count)
system.cpu.vecRegfileReads                         16                       # number of vector regfile reads (Count)
system.cpu.ccRegfileReads                  4966391722                       # number of cc regfile reads (Count)
system.cpu.ccRegfileWrites                  836132078                       # number of cc regfile writes (Count)
system.cpu.miscRegfileReads                 429526528                       # number of misc regfile reads (Count)
system.cpu.miscRegfileWrites                  5052022                       # number of misc regfile writes (Count)
system.cpu.MemDepUnit__0.insertedLoads      345352222                       # Number of loads inserted to the mem dependence unit. (Count)
system.cpu.MemDepUnit__0.insertedStores     143308425                       # Number of stores inserted to the mem dependence unit. (Count)
system.cpu.MemDepUnit__0.conflictingLoads     47282510                       # Number of conflicting loads. (Count)
system.cpu.MemDepUnit__0.conflictingStores     32992067                       # Number of conflicting stores. (Count)
system.cpu.MemDepUnit__1.insertedLoads              0                       # Number of loads inserted to the mem dependence unit. (Count)
system.cpu.MemDepUnit__1.insertedStores             0                       # Number of stores inserted to the mem dependence unit. (Count)
system.cpu.MemDepUnit__1.conflictingLoads            0                       # Number of conflicting loads. (Count)
system.cpu.MemDepUnit__1.conflictingStores            0                       # Number of conflicting stores. (Count)
system.cpu.MemDepUnit__2.insertedLoads              0                       # Number of loads inserted to the mem dependence unit. (Count)
system.cpu.MemDepUnit__2.insertedStores             0                       # Number of stores inserted to the mem dependence unit. (Count)
system.cpu.MemDepUnit__2.conflictingLoads            0                       # Number of conflicting loads. (Count)
system.cpu.MemDepUnit__2.conflictingStores            0                       # Number of conflicting stores. (Count)
system.cpu.MemDepUnit__3.insertedLoads              0                       # Number of loads inserted to the mem dependence unit. (Count)
system.cpu.MemDepUnit__3.insertedStores             0                       # Number of stores inserted to the mem dependence unit. (Count)
system.cpu.MemDepUnit__3.conflictingLoads            0                       # Number of conflicting loads. (Count)
system.cpu.MemDepUnit__3.conflictingStores            0                       # Number of conflicting stores. (Count)
system.cpu.branchPred.lookups               351670056                       # Number of BP lookups (Count)
system.cpu.branchPred.condPredicted         296998229                       # Number of conditional branches predicted (Count)
system.cpu.branchPred.condIncorrect          10366333                       # Number of conditional branches incorrect (Count)
system.cpu.branchPred.BTBLookups            151867009                       # Number of BTB lookups (Count)
system.cpu.branchPred.BTBHits               148177787                       # Number of BTB hits (Count)
system.cpu.branchPred.BTBHitRatio            0.975708                       # BTB Hit Ratio (Ratio)
system.cpu.branchPred.RASUsed                10688816                       # Number of times the RAS was used to get a target. (Count)
system.cpu.branchPred.RASIncorrect                 65                       # Number of incorrect RAS predictions. (Count)
system.cpu.branchPred.indirectLookups         2549940                       # Number of indirect predictor lookups. (Count)
system.cpu.branchPred.indirectHits            1336651                       # Number of indirect target hits. (Count)
system.cpu.branchPred.indirectMisses          1213289                       # Number of indirect misses. (Count)
system.cpu.branchPred.indirectMispredicted         9087                       # Number of mispredicted indirect branches. (Count)
system.cpu.commit.commitSquashedInsts       335315629                       # The number of squashed insts skipped by commit (Count)
system.cpu.commit.commitNonSpecStalls         3789440                       # The number of times commit has been forced to stall to communicate backwards (Count)
system.cpu.commit.branchMispredicts           8307156                       # The number of times a branch was mispredicted (Count)
system.cpu.commit.numCommittedDist::samples   2009617085                       # Number of insts commited each cycle (Count)
system.cpu.commit.numCommittedDist::mean     0.539600                       # Number of insts commited each cycle (Count)
system.cpu.commit.numCommittedDist::stdev     1.594369                       # Number of insts commited each cycle (Count)
system.cpu.commit.numCommittedDist::underflows            0      0.00%      0.00% # Number of insts commited each cycle (Count)
system.cpu.commit.numCommittedDist::0      1656887090     82.45%     82.45% # Number of insts commited each cycle (Count)
system.cpu.commit.numCommittedDist::1       157211759      7.82%     90.27% # Number of insts commited each cycle (Count)
system.cpu.commit.numCommittedDist::2        56802785      2.83%     93.10% # Number of insts commited each cycle (Count)
system.cpu.commit.numCommittedDist::3        23793397      1.18%     94.28% # Number of insts commited each cycle (Count)
system.cpu.commit.numCommittedDist::4        21905643      1.09%     95.37% # Number of insts commited each cycle (Count)
system.cpu.commit.numCommittedDist::5        19608850      0.98%     96.35% # Number of insts commited each cycle (Count)
system.cpu.commit.numCommittedDist::6         8644678      0.43%     96.78% # Number of insts commited each cycle (Count)
system.cpu.commit.numCommittedDist::7        13446912      0.67%     97.45% # Number of insts commited each cycle (Count)
system.cpu.commit.numCommittedDist::8        51315971      2.55%    100.00% # Number of insts commited each cycle (Count)
system.cpu.commit.numCommittedDist::overflows            0      0.00%    100.00% # Number of insts commited each cycle (Count)
system.cpu.commit.numCommittedDist::min_value            0                       # Number of insts commited each cycle (Count)
system.cpu.commit.numCommittedDist::max_value            8                       # Number of insts commited each cycle (Count)
system.cpu.commit.numCommittedDist::total   2009617085                       # Number of insts commited each cycle (Count)
system.cpu.commit.instsCommitted           1000000001                       # Number of instructions committed (Count)
system.cpu.commit.opsCommitted             1084388562                       # Number of ops (including micro ops) committed (Count)
system.cpu.commit.memRefs                   371594264                       # Number of memory references committed (Count)
system.cpu.commit.loads                     257232843                       # Number of loads committed (Count)
system.cpu.commit.amos                              0                       # Number of atomic instructions committed (Count)
system.cpu.commit.membars                     2526011                       # Number of memory barriers committed (Count)
system.cpu.commit.branches                  234516986                       # Number of branches committed (Count)
system.cpu.commit.vectorInstructions                0                       # Number of committed Vector instructions. (Count)
system.cpu.commit.floating                          0                       # Number of committed floating point instructions. (Count)
system.cpu.commit.integer                   857333723                       # Number of committed integer instructions. (Count)
system.cpu.commit.functionCalls               6817153                       # Number of function calls committed. (Count)
system.cpu.commit.committedInstType_0::No_OpClass            0      0.00%      0.00% # Class of committed instruction (Count)
system.cpu.commit.committedInstType_0::IntAlu    710093877     65.48%     65.48% # Class of committed instruction (Count)
system.cpu.commit.committedInstType_0::IntMult      2700418      0.25%     65.73% # Class of committed instruction (Count)
system.cpu.commit.committedInstType_0::IntDiv            0      0.00%     65.73% # Class of committed instruction (Count)
system.cpu.commit.committedInstType_0::FloatAdd            0      0.00%     65.73% # Class of committed instruction (Count)
system.cpu.commit.committedInstType_0::FloatCmp            0      0.00%     65.73% # Class of committed instruction (Count)
system.cpu.commit.committedInstType_0::FloatCvt            0      0.00%     65.73% # Class of committed instruction (Count)
system.cpu.commit.committedInstType_0::FloatMult            0      0.00%     65.73% # Class of committed instruction (Count)
system.cpu.commit.committedInstType_0::FloatMultAcc            0      0.00%     65.73% # Class of committed instruction (Count)
system.cpu.commit.committedInstType_0::FloatDiv            0      0.00%     65.73% # Class of committed instruction (Count)
system.cpu.commit.committedInstType_0::FloatMisc            0      0.00%     65.73% # Class of committed instruction (Count)
system.cpu.commit.committedInstType_0::FloatSqrt            0      0.00%     65.73% # Class of committed instruction (Count)
system.cpu.commit.committedInstType_0::SimdAdd            0      0.00%     65.73% # Class of committed instruction (Count)
system.cpu.commit.committedInstType_0::SimdAddAcc            0      0.00%     65.73% # Class of committed instruction (Count)
system.cpu.commit.committedInstType_0::SimdAlu            0      0.00%     65.73% # Class of committed instruction (Count)
system.cpu.commit.committedInstType_0::SimdCmp            0      0.00%     65.73% # Class of committed instruction (Count)
system.cpu.commit.committedInstType_0::SimdCvt            0      0.00%     65.73% # Class of committed instruction (Count)
system.cpu.commit.committedInstType_0::SimdMisc            0      0.00%     65.73% # Class of committed instruction (Count)
system.cpu.commit.committedInstType_0::SimdMult            0      0.00%     65.73% # Class of committed instruction (Count)
system.cpu.commit.committedInstType_0::SimdMultAcc            0      0.00%     65.73% # Class of committed instruction (Count)
system.cpu.commit.committedInstType_0::SimdShift            0      0.00%     65.73% # Class of committed instruction (Count)
system.cpu.commit.committedInstType_0::SimdShiftAcc            0      0.00%     65.73% # Class of committed instruction (Count)
system.cpu.commit.committedInstType_0::SimdDiv            0      0.00%     65.73% # Class of committed instruction (Count)
system.cpu.commit.committedInstType_0::SimdSqrt            0      0.00%     65.73% # Class of committed instruction (Count)
system.cpu.commit.committedInstType_0::SimdFloatAdd            0      0.00%     65.73% # Class of committed instruction (Count)
system.cpu.commit.committedInstType_0::SimdFloatAlu            0      0.00%     65.73% # Class of committed instruction (Count)
system.cpu.commit.committedInstType_0::SimdFloatCmp            0      0.00%     65.73% # Class of committed instruction (Count)
system.cpu.commit.committedInstType_0::SimdFloatCvt            0      0.00%     65.73% # Class of committed instruction (Count)
system.cpu.commit.committedInstType_0::SimdFloatDiv            0      0.00%     65.73% # Class of committed instruction (Count)
system.cpu.commit.committedInstType_0::SimdFloatMisc            3      0.00%     65.73% # Class of committed instruction (Count)
system.cpu.commit.committedInstType_0::SimdFloatMult            0      0.00%     65.73% # Class of committed instruction (Count)
system.cpu.commit.committedInstType_0::SimdFloatMultAcc            0      0.00%     65.73% # Class of committed instruction (Count)
system.cpu.commit.committedInstType_0::SimdFloatSqrt            0      0.00%     65.73% # Class of committed instruction (Count)
system.cpu.commit.committedInstType_0::SimdReduceAdd            0      0.00%     65.73% # Class of committed instruction (Count)
system.cpu.commit.committedInstType_0::SimdReduceAlu            0      0.00%     65.73% # Class of committed instruction (Count)
system.cpu.commit.committedInstType_0::SimdReduceCmp            0      0.00%     65.73% # Class of committed instruction (Count)
system.cpu.commit.committedInstType_0::SimdFloatReduceAdd            0      0.00%     65.73% # Class of committed instruction (Count)
system.cpu.commit.committedInstType_0::SimdFloatReduceCmp            0      0.00%     65.73% # Class of committed instruction (Count)
system.cpu.commit.committedInstType_0::SimdAes            0      0.00%     65.73% # Class of committed instruction (Count)
system.cpu.commit.committedInstType_0::SimdAesMix            0      0.00%     65.73% # Class of committed instruction (Count)
system.cpu.commit.committedInstType_0::SimdSha1Hash            0      0.00%     65.73% # Class of committed instruction (Count)
system.cpu.commit.committedInstType_0::SimdSha1Hash2            0      0.00%     65.73% # Class of committed instruction (Count)
system.cpu.commit.committedInstType_0::SimdSha256Hash            0      0.00%     65.73% # Class of committed instruction (Count)
system.cpu.commit.committedInstType_0::SimdSha256Hash2            0      0.00%     65.73% # Class of committed instruction (Count)
system.cpu.commit.committedInstType_0::SimdShaSigma2            0      0.00%     65.73% # Class of committed instruction (Count)
system.cpu.commit.committedInstType_0::SimdShaSigma3            0      0.00%     65.73% # Class of committed instruction (Count)
system.cpu.commit.committedInstType_0::SimdPredAlu            0      0.00%     65.73% # Class of committed instruction (Count)
system.cpu.commit.committedInstType_0::MemRead    257232843     23.72%     89.45% # Class of committed instruction (Count)
system.cpu.commit.committedInstType_0::MemWrite    114361421     10.55%    100.00% # Class of committed instruction (Count)
system.cpu.commit.committedInstType_0::FloatMemRead            0      0.00%    100.00% # Class of committed instruction (Count)
system.cpu.commit.committedInstType_0::FloatMemWrite            0      0.00%    100.00% # Class of committed instruction (Count)
system.cpu.commit.committedInstType_0::IprAccess            0      0.00%    100.00% # Class of committed instruction (Count)
system.cpu.commit.committedInstType_0::InstPrefetch            0      0.00%    100.00% # Class of committed instruction (Count)
system.cpu.commit.committedInstType_0::total   1084388562                       # Class of committed instruction (Count)
system.cpu.commit.commitEligibleSamples      51315971                       # number cycles where commit BW limit reached (Cycle)
system.cpu.dcache.demandHits::cpu.data      330877662                       # number of demand (read+write) hits (Count)
system.cpu.dcache.demandHits::total         330877662                       # number of demand (read+write) hits (Count)
system.cpu.dcache.overallHits::cpu.data     331096801                       # number of overall hits (Count)
system.cpu.dcache.overallHits::total        331096801                       # number of overall hits (Count)
system.cpu.dcache.demandMisses::cpu.data     68112730                       # number of demand (read+write) misses (Count)
system.cpu.dcache.demandMisses::total        68112730                       # number of demand (read+write) misses (Count)
system.cpu.dcache.overallMisses::cpu.data     68113332                       # number of overall misses (Count)
system.cpu.dcache.overallMisses::total       68113332                       # number of overall misses (Count)
system.cpu.dcache.demandMissLatency::cpu.data 3209569808548                       # number of demand (read+write) miss ticks (Tick)
system.cpu.dcache.demandMissLatency::total 3209569808548                       # number of demand (read+write) miss ticks (Tick)
system.cpu.dcache.overallMissLatency::cpu.data 3209569808548                       # number of overall miss ticks (Tick)
system.cpu.dcache.overallMissLatency::total 3209569808548                       # number of overall miss ticks (Tick)
system.cpu.dcache.demandAccesses::cpu.data    398990392                       # number of demand (read+write) accesses (Count)
system.cpu.dcache.demandAccesses::total     398990392                       # number of demand (read+write) accesses (Count)
system.cpu.dcache.overallAccesses::cpu.data    399210133                       # number of overall (read+write) accesses (Count)
system.cpu.dcache.overallAccesses::total    399210133                       # number of overall (read+write) accesses (Count)
system.cpu.dcache.demandMissRate::cpu.data     0.170713                       # miss rate for demand accesses (Ratio)
system.cpu.dcache.demandMissRate::total      0.170713                       # miss rate for demand accesses (Ratio)
system.cpu.dcache.overallMissRate::cpu.data     0.170620                       # miss rate for overall accesses (Ratio)
system.cpu.dcache.overallMissRate::total     0.170620                       # miss rate for overall accesses (Ratio)
system.cpu.dcache.demandAvgMissLatency::cpu.data 47121.438365                       # average overall miss latency in ticks ((Tick/Count))
system.cpu.dcache.demandAvgMissLatency::total 47121.438365                       # average overall miss latency in ticks ((Tick/Count))
system.cpu.dcache.overallAvgMissLatency::cpu.data 47121.021896                       # average overall miss latency ((Tick/Count))
system.cpu.dcache.overallAvgMissLatency::total 47121.021896                       # average overall miss latency ((Tick/Count))
system.cpu.dcache.blockedCycles::no_mshrs    305396566                       # number of cycles access was blocked (Cycle)
system.cpu.dcache.blockedCycles::no_targets        39259                       # number of cycles access was blocked (Cycle)
system.cpu.dcache.blockedCauses::no_mshrs     15893171                       # number of times access was blocked (Count)
system.cpu.dcache.blockedCauses::no_targets         1288                       # number of times access was blocked (Count)
system.cpu.dcache.avgBlocked::no_mshrs      19.215584                       # average number of cycles each access was blocked ((Cycle/Count))
system.cpu.dcache.avgBlocked::no_targets    30.480590                       # average number of cycles each access was blocked ((Cycle/Count))
system.cpu.dcache.writebacks::writebacks     10024321                       # number of writebacks (Count)
system.cpu.dcache.writebacks::total          10024321                       # number of writebacks (Count)
system.cpu.dcache.demandMshrHits::cpu.data     35518627                       # number of demand (read+write) MSHR hits (Count)
system.cpu.dcache.demandMshrHits::total      35518627                       # number of demand (read+write) MSHR hits (Count)
system.cpu.dcache.overallMshrHits::cpu.data     35518627                       # number of overall MSHR hits (Count)
system.cpu.dcache.overallMshrHits::total     35518627                       # number of overall MSHR hits (Count)
system.cpu.dcache.demandMshrMisses::cpu.data     32594103                       # number of demand (read+write) MSHR misses (Count)
system.cpu.dcache.demandMshrMisses::total     32594103                       # number of demand (read+write) MSHR misses (Count)
system.cpu.dcache.overallMshrMisses::cpu.data     32594366                       # number of overall MSHR misses (Count)
system.cpu.dcache.overallMshrMisses::total     32594366                       # number of overall MSHR misses (Count)
system.cpu.dcache.demandMshrMissLatency::cpu.data 1495704341809                       # number of demand (read+write) MSHR miss ticks (Tick)
system.cpu.dcache.demandMshrMissLatency::total 1495704341809                       # number of demand (read+write) MSHR miss ticks (Tick)
system.cpu.dcache.overallMshrMissLatency::cpu.data 1495708130533                       # number of overall MSHR miss ticks (Tick)
system.cpu.dcache.overallMshrMissLatency::total 1495708130533                       # number of overall MSHR miss ticks (Tick)
system.cpu.dcache.demandMshrMissRate::cpu.data     0.081691                       # mshr miss ratio for demand accesses (Ratio)
system.cpu.dcache.demandMshrMissRate::total     0.081691                       # mshr miss ratio for demand accesses (Ratio)
system.cpu.dcache.overallMshrMissRate::cpu.data     0.081647                       # mshr miss ratio for overall accesses (Ratio)
system.cpu.dcache.overallMshrMissRate::total     0.081647                       # mshr miss ratio for overall accesses (Ratio)
system.cpu.dcache.demandAvgMshrMissLatency::cpu.data 45888.802088                       # average overall mshr miss latency ((Tick/Count))
system.cpu.dcache.demandAvgMshrMissLatency::total 45888.802088                       # average overall mshr miss latency ((Tick/Count))
system.cpu.dcache.overallAvgMshrMissLatency::cpu.data 45888.548056                       # average overall mshr miss latency ((Tick/Count))
system.cpu.dcache.overallAvgMshrMissLatency::total 45888.548056                       # average overall mshr miss latency ((Tick/Count))
system.cpu.dcache.replacements               32593846                       # number of replacements (Count)
system.cpu.dcache.LoadLockedReq.hits::cpu.data      1263003                       # number of LoadLockedReq hits (Count)
system.cpu.dcache.LoadLockedReq.hits::total      1263003                       # number of LoadLockedReq hits (Count)
system.cpu.dcache.LoadLockedReq.misses::cpu.data            2                       # number of LoadLockedReq misses (Count)
system.cpu.dcache.LoadLockedReq.misses::total            2                       # number of LoadLockedReq misses (Count)
system.cpu.dcache.LoadLockedReq.missLatency::cpu.data       147896                       # number of LoadLockedReq miss ticks (Tick)
system.cpu.dcache.LoadLockedReq.missLatency::total       147896                       # number of LoadLockedReq miss ticks (Tick)
system.cpu.dcache.LoadLockedReq.accesses::cpu.data      1263005                       # number of LoadLockedReq accesses(hits+misses) (Count)
system.cpu.dcache.LoadLockedReq.accesses::total      1263005                       # number of LoadLockedReq accesses(hits+misses) (Count)
system.cpu.dcache.LoadLockedReq.missRate::cpu.data     0.000002                       # miss rate for LoadLockedReq accesses (Ratio)
system.cpu.dcache.LoadLockedReq.missRate::total     0.000002                       # miss rate for LoadLockedReq accesses (Ratio)
system.cpu.dcache.LoadLockedReq.avgMissLatency::cpu.data        73948                       # average LoadLockedReq miss latency ((Tick/Count))
system.cpu.dcache.LoadLockedReq.avgMissLatency::total        73948                       # average LoadLockedReq miss latency ((Tick/Count))
system.cpu.dcache.LoadLockedReq.mshrMisses::cpu.data            2                       # number of LoadLockedReq MSHR misses (Count)
system.cpu.dcache.LoadLockedReq.mshrMisses::total            2                       # number of LoadLockedReq MSHR misses (Count)
system.cpu.dcache.LoadLockedReq.mshrMissLatency::cpu.data       145152                       # number of LoadLockedReq MSHR miss ticks (Tick)
system.cpu.dcache.LoadLockedReq.mshrMissLatency::total       145152                       # number of LoadLockedReq MSHR miss ticks (Tick)
system.cpu.dcache.LoadLockedReq.mshrMissRate::cpu.data     0.000002                       # mshr miss rate for LoadLockedReq accesses (Ratio)
system.cpu.dcache.LoadLockedReq.mshrMissRate::total     0.000002                       # mshr miss rate for LoadLockedReq accesses (Ratio)
system.cpu.dcache.LoadLockedReq.avgMshrMissLatency::cpu.data        72576                       # average LoadLockedReq mshr miss latency ((Tick/Count))
system.cpu.dcache.LoadLockedReq.avgMshrMissLatency::total        72576                       # average LoadLockedReq mshr miss latency ((Tick/Count))
system.cpu.dcache.ReadReq.hits::cpu.data    223026588                       # number of ReadReq hits (Count)
system.cpu.dcache.ReadReq.hits::total       223026588                       # number of ReadReq hits (Count)
system.cpu.dcache.ReadReq.misses::cpu.data     65604769                       # number of ReadReq misses (Count)
system.cpu.dcache.ReadReq.misses::total      65604769                       # number of ReadReq misses (Count)
system.cpu.dcache.ReadReq.missLatency::cpu.data 3102765653264                       # number of ReadReq miss ticks (Tick)
system.cpu.dcache.ReadReq.missLatency::total 3102765653264                       # number of ReadReq miss ticks (Tick)
system.cpu.dcache.ReadReq.accesses::cpu.data    288631357                       # number of ReadReq accesses(hits+misses) (Count)
system.cpu.dcache.ReadReq.accesses::total    288631357                       # number of ReadReq accesses(hits+misses) (Count)
system.cpu.dcache.ReadReq.missRate::cpu.data     0.227296                       # miss rate for ReadReq accesses (Ratio)
system.cpu.dcache.ReadReq.missRate::total     0.227296                       # miss rate for ReadReq accesses (Ratio)
system.cpu.dcache.ReadReq.avgMissLatency::cpu.data 47294.818663                       # average ReadReq miss latency ((Tick/Count))
system.cpu.dcache.ReadReq.avgMissLatency::total 47294.818663                       # average ReadReq miss latency ((Tick/Count))
system.cpu.dcache.ReadReq.mshrHits::cpu.data     33802522                       # number of ReadReq MSHR hits (Count)
system.cpu.dcache.ReadReq.mshrHits::total     33802522                       # number of ReadReq MSHR hits (Count)
system.cpu.dcache.ReadReq.mshrMisses::cpu.data     31802247                       # number of ReadReq MSHR misses (Count)
system.cpu.dcache.ReadReq.mshrMisses::total     31802247                       # number of ReadReq MSHR misses (Count)
system.cpu.dcache.ReadReq.mshrMissLatency::cpu.data 1461719978224                       # number of ReadReq MSHR miss ticks (Tick)
system.cpu.dcache.ReadReq.mshrMissLatency::total 1461719978224                       # number of ReadReq MSHR miss ticks (Tick)
system.cpu.dcache.ReadReq.mshrMissRate::cpu.data     0.110183                       # mshr miss rate for ReadReq accesses (Ratio)
system.cpu.dcache.ReadReq.mshrMissRate::total     0.110183                       # mshr miss rate for ReadReq accesses (Ratio)
system.cpu.dcache.ReadReq.avgMshrMissLatency::cpu.data 45962.789303                       # average ReadReq mshr miss latency ((Tick/Count))
system.cpu.dcache.ReadReq.avgMshrMissLatency::total 45962.789303                       # average ReadReq mshr miss latency ((Tick/Count))
system.cpu.dcache.SoftPFReq.hits::cpu.data       219139                       # number of SoftPFReq hits (Count)
system.cpu.dcache.SoftPFReq.hits::total        219139                       # number of SoftPFReq hits (Count)
system.cpu.dcache.SoftPFReq.misses::cpu.data          602                       # number of SoftPFReq misses (Count)
system.cpu.dcache.SoftPFReq.misses::total          602                       # number of SoftPFReq misses (Count)
system.cpu.dcache.SoftPFReq.accesses::cpu.data       219741                       # number of SoftPFReq accesses(hits+misses) (Count)
system.cpu.dcache.SoftPFReq.accesses::total       219741                       # number of SoftPFReq accesses(hits+misses) (Count)
system.cpu.dcache.SoftPFReq.missRate::cpu.data     0.002740                       # miss rate for SoftPFReq accesses (Ratio)
system.cpu.dcache.SoftPFReq.missRate::total     0.002740                       # miss rate for SoftPFReq accesses (Ratio)
system.cpu.dcache.SoftPFReq.mshrMisses::cpu.data          263                       # number of SoftPFReq MSHR misses (Count)
system.cpu.dcache.SoftPFReq.mshrMisses::total          263                       # number of SoftPFReq MSHR misses (Count)
system.cpu.dcache.SoftPFReq.mshrMissLatency::cpu.data      3788724                       # number of SoftPFReq MSHR miss ticks (Tick)
system.cpu.dcache.SoftPFReq.mshrMissLatency::total      3788724                       # number of SoftPFReq MSHR miss ticks (Tick)
system.cpu.dcache.SoftPFReq.mshrMissRate::cpu.data     0.001197                       # mshr miss rate for SoftPFReq accesses (Ratio)
system.cpu.dcache.SoftPFReq.mshrMissRate::total     0.001197                       # mshr miss rate for SoftPFReq accesses (Ratio)
system.cpu.dcache.SoftPFReq.avgMshrMissLatency::cpu.data 14405.794677                       # average SoftPFReq mshr miss latency ((Tick/Count))
system.cpu.dcache.SoftPFReq.avgMshrMissLatency::total 14405.794677                       # average SoftPFReq mshr miss latency ((Tick/Count))
system.cpu.dcache.StoreCondReq.hits::cpu.data      1263005                       # number of StoreCondReq hits (Count)
system.cpu.dcache.StoreCondReq.hits::total      1263005                       # number of StoreCondReq hits (Count)
system.cpu.dcache.StoreCondReq.accesses::cpu.data      1263005                       # number of StoreCondReq accesses(hits+misses) (Count)
system.cpu.dcache.StoreCondReq.accesses::total      1263005                       # number of StoreCondReq accesses(hits+misses) (Count)
system.cpu.dcache.WriteReq.hits::cpu.data    107851074                       # number of WriteReq hits (Count)
system.cpu.dcache.WriteReq.hits::total      107851074                       # number of WriteReq hits (Count)
system.cpu.dcache.WriteReq.misses::cpu.data      2507961                       # number of WriteReq misses (Count)
system.cpu.dcache.WriteReq.misses::total      2507961                       # number of WriteReq misses (Count)
system.cpu.dcache.WriteReq.missLatency::cpu.data 106804155284                       # number of WriteReq miss ticks (Tick)
system.cpu.dcache.WriteReq.missLatency::total 106804155284                       # number of WriteReq miss ticks (Tick)
system.cpu.dcache.WriteReq.accesses::cpu.data    110359035                       # number of WriteReq accesses(hits+misses) (Count)
system.cpu.dcache.WriteReq.accesses::total    110359035                       # number of WriteReq accesses(hits+misses) (Count)
system.cpu.dcache.WriteReq.missRate::cpu.data     0.022725                       # miss rate for WriteReq accesses (Ratio)
system.cpu.dcache.WriteReq.missRate::total     0.022725                       # miss rate for WriteReq accesses (Ratio)
system.cpu.dcache.WriteReq.avgMissLatency::cpu.data 42586.051093                       # average WriteReq miss latency ((Tick/Count))
system.cpu.dcache.WriteReq.avgMissLatency::total 42586.051093                       # average WriteReq miss latency ((Tick/Count))
system.cpu.dcache.WriteReq.mshrHits::cpu.data      1716105                       # number of WriteReq MSHR hits (Count)
system.cpu.dcache.WriteReq.mshrHits::total      1716105                       # number of WriteReq MSHR hits (Count)
system.cpu.dcache.WriteReq.mshrMisses::cpu.data       791856                       # number of WriteReq MSHR misses (Count)
system.cpu.dcache.WriteReq.mshrMisses::total       791856                       # number of WriteReq MSHR misses (Count)
system.cpu.dcache.WriteReq.mshrMissLatency::cpu.data  33984363585                       # number of WriteReq MSHR miss ticks (Tick)
system.cpu.dcache.WriteReq.mshrMissLatency::total  33984363585                       # number of WriteReq MSHR miss ticks (Tick)
system.cpu.dcache.WriteReq.mshrMissRate::cpu.data     0.007175                       # mshr miss rate for WriteReq accesses (Ratio)
system.cpu.dcache.WriteReq.mshrMissRate::total     0.007175                       # mshr miss rate for WriteReq accesses (Ratio)
system.cpu.dcache.WriteReq.avgMshrMissLatency::cpu.data 42917.353136                       # average WriteReq mshr miss latency ((Tick/Count))
system.cpu.dcache.WriteReq.avgMshrMissLatency::total 42917.353136                       # average WriteReq mshr miss latency ((Tick/Count))
system.cpu.dcache.power_state.pwrStateResidencyTicks::UNDEFINED 1144649474256                       # Cumulative time (in ticks) in various power states (Tick)
system.cpu.dcache.tags.tagsInUse           511.978008                       # Average ticks per tags in use ((Tick/Count))
system.cpu.dcache.tags.totalRefs            366217258                       # Total number of references to valid blocks. (Count)
system.cpu.dcache.tags.sampledRefs           32594358                       # Sample count of references to valid blocks. (Count)
system.cpu.dcache.tags.avgRefs              11.235603                       # Average number of references to valid blocks. ((Count/Count))
system.cpu.dcache.tags.warmupTick              100500                       # The tick when the warmup percentage was hit. (Tick)
system.cpu.dcache.tags.occupancies::cpu.data   511.978008                       # Average occupied blocks per tick, per requestor ((Count/Tick))
system.cpu.dcache.tags.avgOccs::cpu.data     0.999957                       # Average percentage of cache occupancy ((Ratio/Tick))
system.cpu.dcache.tags.avgOccs::total        0.999957                       # Average percentage of cache occupancy ((Ratio/Tick))
system.cpu.dcache.tags.occupanciesTaskId::1024          512                       # Occupied blocks per task id (Count)
system.cpu.dcache.tags.ageTaskId_1024::0          144                       # Occupied blocks per task id, per block age (Count)
system.cpu.dcache.tags.ageTaskId_1024::1          367                       # Occupied blocks per task id, per block age (Count)
system.cpu.dcache.tags.ageTaskId_1024::3            1                       # Occupied blocks per task id, per block age (Count)
system.cpu.dcache.tags.ratioOccsTaskId::1024            1                       # Ratio of occupied blocks and all blocks, per task id (Ratio)
system.cpu.dcache.tags.tagAccesses         1639538930                       # Number of tag accesses (Count)
system.cpu.dcache.tags.dataAccesses        1639538930                       # Number of data accesses (Count)
system.cpu.dcache.tags.power_state.pwrStateResidencyTicks::UNDEFINED 1144649474256                       # Cumulative time (in ticks) in various power states (Tick)
system.cpu.decode.idleCycles                139721634                       # Number of cycles decode is idle (Cycle)
system.cpu.decode.blockedCycles            1660205634                       # Number of cycles decode is blocked (Cycle)
system.cpu.decode.runCycles                 208239483                       # Number of cycles decode is running (Cycle)
system.cpu.decode.unblockCycles              41347683                       # Number of cycles decode is unblocking (Cycle)
system.cpu.decode.squashCycles                9173159                       # Number of cycles decode is squashing (Cycle)
system.cpu.decode.branchResolved            139709190                       # Number of times decode resolved a branch (Count)
system.cpu.decode.branchMispred               2063379                       # Number of times decode detected a branch misprediction (Count)
system.cpu.decode.decodedInsts             1513764954                       # Number of instructions handled by decode (Count)
system.cpu.decode.squashedInsts               3617995                       # Number of squashed instructions handled by decode (Count)
system.cpu.fetch.icacheStallCycles          187653678                       # Number of cycles fetch is stalled on an Icache miss (Cycle)
system.cpu.fetch.insts                     1526500665                       # Number of instructions fetch has processed (Count)
system.cpu.fetch.branches                   351670056                       # Number of branches that fetch encountered (Count)
system.cpu.fetch.predictedBranches          160203254                       # Number of branches that fetch has predicted taken (Count)
system.cpu.fetch.cycles                    1859801510                       # Number of cycles fetch has run and was not squashing or blocked (Cycle)
system.cpu.fetch.squashCycles                22464678                       # Number of cycles fetch has spent squashing (Cycle)
system.cpu.fetch.miscStallCycles                    7                       # Number of cycles fetch has spent waiting on interrupts, or bad addresses, or out of MSHRs (Cycle)
system.cpu.fetch.pendingTrapStallCycles            29                       # Number of stall cycles due to pending traps (Cycle)
system.cpu.fetch.icacheWaitRetryStallCycles           30                       # Number of stall cycles due to full MSHR (Cycle)
system.cpu.fetch.cacheLines                 182143675                       # Number of cache lines fetched (Count)
system.cpu.fetch.icacheSquashes               3350002                       # Number of outstanding Icache misses that were squashed (Count)
system.cpu.fetch.nisnDist::samples         2058687593                       # Number of instructions fetched each cycle (Total) (Count)
system.cpu.fetch.nisnDist::mean              0.798054                       # Number of instructions fetched each cycle (Total) (Count)
system.cpu.fetch.nisnDist::stdev             2.109700                       # Number of instructions fetched each cycle (Total) (Count)
system.cpu.fetch.nisnDist::underflows               0      0.00%      0.00% # Number of instructions fetched each cycle (Total) (Count)
system.cpu.fetch.nisnDist::0               1741971414     84.62%     84.62% # Number of instructions fetched each cycle (Total) (Count)
system.cpu.fetch.nisnDist::1                 18965658      0.92%     85.54% # Number of instructions fetched each cycle (Total) (Count)
system.cpu.fetch.nisnDist::2                 47005107      2.28%     87.82% # Number of instructions fetched each cycle (Total) (Count)
system.cpu.fetch.nisnDist::3                 39658372      1.93%     89.75% # Number of instructions fetched each cycle (Total) (Count)
system.cpu.fetch.nisnDist::4                 29341832      1.43%     91.17% # Number of instructions fetched each cycle (Total) (Count)
system.cpu.fetch.nisnDist::5                 22595984      1.10%     92.27% # Number of instructions fetched each cycle (Total) (Count)
system.cpu.fetch.nisnDist::6                 39210106      1.90%     94.17% # Number of instructions fetched each cycle (Total) (Count)
system.cpu.fetch.nisnDist::7                 14127439      0.69%     94.86% # Number of instructions fetched each cycle (Total) (Count)
system.cpu.fetch.nisnDist::8                105811681      5.14%    100.00% # Number of instructions fetched each cycle (Total) (Count)
system.cpu.fetch.nisnDist::overflows                0      0.00%    100.00% # Number of instructions fetched each cycle (Total) (Count)
system.cpu.fetch.nisnDist::min_value                0                       # Number of instructions fetched each cycle (Total) (Count)
system.cpu.fetch.nisnDist::max_value                8                       # Number of instructions fetched each cycle (Total) (Count)
system.cpu.fetch.nisnDist::total           2058687593                       # Number of instructions fetched each cycle (Total) (Count)
system.cpu.fetch.branchRate                  0.170820                       # Number of branch fetches per cycle (Ratio)
system.cpu.fetch.rate                        0.741480                       # Number of inst fetches per cycle ((Count/Cycle))
system.cpu.icache.demandHits::cpu.inst      182142940                       # number of demand (read+write) hits (Count)
system.cpu.icache.demandHits::total         182142940                       # number of demand (read+write) hits (Count)
system.cpu.icache.overallHits::cpu.inst     182142940                       # number of overall hits (Count)
system.cpu.icache.overallHits::total        182142940                       # number of overall hits (Count)
system.cpu.icache.demandMisses::cpu.inst          735                       # number of demand (read+write) misses (Count)
system.cpu.icache.demandMisses::total             735                       # number of demand (read+write) misses (Count)
system.cpu.icache.overallMisses::cpu.inst          735                       # number of overall misses (Count)
system.cpu.icache.overallMisses::total            735                       # number of overall misses (Count)
system.cpu.icache.demandMissLatency::cpu.inst     51265227                       # number of demand (read+write) miss ticks (Tick)
system.cpu.icache.demandMissLatency::total     51265227                       # number of demand (read+write) miss ticks (Tick)
system.cpu.icache.overallMissLatency::cpu.inst     51265227                       # number of overall miss ticks (Tick)
system.cpu.icache.overallMissLatency::total     51265227                       # number of overall miss ticks (Tick)
system.cpu.icache.demandAccesses::cpu.inst    182143675                       # number of demand (read+write) accesses (Count)
system.cpu.icache.demandAccesses::total     182143675                       # number of demand (read+write) accesses (Count)
system.cpu.icache.overallAccesses::cpu.inst    182143675                       # number of overall (read+write) accesses (Count)
system.cpu.icache.overallAccesses::total    182143675                       # number of overall (read+write) accesses (Count)
system.cpu.icache.demandMissRate::cpu.inst     0.000004                       # miss rate for demand accesses (Ratio)
system.cpu.icache.demandMissRate::total      0.000004                       # miss rate for demand accesses (Ratio)
system.cpu.icache.overallMissRate::cpu.inst     0.000004                       # miss rate for overall accesses (Ratio)
system.cpu.icache.overallMissRate::total     0.000004                       # miss rate for overall accesses (Ratio)
system.cpu.icache.demandAvgMissLatency::cpu.inst 69748.608163                       # average overall miss latency in ticks ((Tick/Count))
system.cpu.icache.demandAvgMissLatency::total 69748.608163                       # average overall miss latency in ticks ((Tick/Count))
system.cpu.icache.overallAvgMissLatency::cpu.inst 69748.608163                       # average overall miss latency ((Tick/Count))
system.cpu.icache.overallAvgMissLatency::total 69748.608163                       # average overall miss latency ((Tick/Count))
system.cpu.icache.blockedCycles::no_mshrs          567                       # number of cycles access was blocked (Cycle)
system.cpu.icache.blockedCycles::no_targets            0                       # number of cycles access was blocked (Cycle)
system.cpu.icache.blockedCauses::no_mshrs           11                       # number of times access was blocked (Count)
system.cpu.icache.blockedCauses::no_targets            0                       # number of times access was blocked (Count)
system.cpu.icache.avgBlocked::no_mshrs      51.545455                       # average number of cycles each access was blocked ((Cycle/Count))
system.cpu.icache.avgBlocked::no_targets          nan                       # average number of cycles each access was blocked ((Cycle/Count))
system.cpu.icache.demandMshrHits::cpu.inst          166                       # number of demand (read+write) MSHR hits (Count)
system.cpu.icache.demandMshrHits::total           166                       # number of demand (read+write) MSHR hits (Count)
system.cpu.icache.overallMshrHits::cpu.inst          166                       # number of overall MSHR hits (Count)
system.cpu.icache.overallMshrHits::total          166                       # number of overall MSHR hits (Count)
system.cpu.icache.demandMshrMisses::cpu.inst          569                       # number of demand (read+write) MSHR misses (Count)
system.cpu.icache.demandMshrMisses::total          569                       # number of demand (read+write) MSHR misses (Count)
system.cpu.icache.overallMshrMisses::cpu.inst          569                       # number of overall MSHR misses (Count)
system.cpu.icache.overallMshrMisses::total          569                       # number of overall MSHR misses (Count)
system.cpu.icache.demandMshrMissLatency::cpu.inst     41510291                       # number of demand (read+write) MSHR miss ticks (Tick)
system.cpu.icache.demandMshrMissLatency::total     41510291                       # number of demand (read+write) MSHR miss ticks (Tick)
system.cpu.icache.overallMshrMissLatency::cpu.inst     41510291                       # number of overall MSHR miss ticks (Tick)
system.cpu.icache.overallMshrMissLatency::total     41510291                       # number of overall MSHR miss ticks (Tick)
system.cpu.icache.demandMshrMissRate::cpu.inst     0.000003                       # mshr miss ratio for demand accesses (Ratio)
system.cpu.icache.demandMshrMissRate::total     0.000003                       # mshr miss ratio for demand accesses (Ratio)
system.cpu.icache.overallMshrMissRate::cpu.inst     0.000003                       # mshr miss ratio for overall accesses (Ratio)
system.cpu.icache.overallMshrMissRate::total     0.000003                       # mshr miss ratio for overall accesses (Ratio)
system.cpu.icache.demandAvgMshrMissLatency::cpu.inst 72953.059754                       # average overall mshr miss latency ((Tick/Count))
system.cpu.icache.demandAvgMshrMissLatency::total 72953.059754                       # average overall mshr miss latency ((Tick/Count))
system.cpu.icache.overallAvgMshrMissLatency::cpu.inst 72953.059754                       # average overall mshr miss latency ((Tick/Count))
system.cpu.icache.overallAvgMshrMissLatency::total 72953.059754                       # average overall mshr miss latency ((Tick/Count))
system.cpu.icache.replacements                    122                       # number of replacements (Count)
system.cpu.icache.ReadReq.hits::cpu.inst    182142940                       # number of ReadReq hits (Count)
system.cpu.icache.ReadReq.hits::total       182142940                       # number of ReadReq hits (Count)
system.cpu.icache.ReadReq.misses::cpu.inst          735                       # number of ReadReq misses (Count)
system.cpu.icache.ReadReq.misses::total           735                       # number of ReadReq misses (Count)
system.cpu.icache.ReadReq.missLatency::cpu.inst     51265227                       # number of ReadReq miss ticks (Tick)
system.cpu.icache.ReadReq.missLatency::total     51265227                       # number of ReadReq miss ticks (Tick)
system.cpu.icache.ReadReq.accesses::cpu.inst    182143675                       # number of ReadReq accesses(hits+misses) (Count)
system.cpu.icache.ReadReq.accesses::total    182143675                       # number of ReadReq accesses(hits+misses) (Count)
system.cpu.icache.ReadReq.missRate::cpu.inst     0.000004                       # miss rate for ReadReq accesses (Ratio)
system.cpu.icache.ReadReq.missRate::total     0.000004                       # miss rate for ReadReq accesses (Ratio)
system.cpu.icache.ReadReq.avgMissLatency::cpu.inst 69748.608163                       # average ReadReq miss latency ((Tick/Count))
system.cpu.icache.ReadReq.avgMissLatency::total 69748.608163                       # average ReadReq miss latency ((Tick/Count))
system.cpu.icache.ReadReq.mshrHits::cpu.inst          166                       # number of ReadReq MSHR hits (Count)
system.cpu.icache.ReadReq.mshrHits::total          166                       # number of ReadReq MSHR hits (Count)
system.cpu.icache.ReadReq.mshrMisses::cpu.inst          569                       # number of ReadReq MSHR misses (Count)
system.cpu.icache.ReadReq.mshrMisses::total          569                       # number of ReadReq MSHR misses (Count)
system.cpu.icache.ReadReq.mshrMissLatency::cpu.inst     41510291                       # number of ReadReq MSHR miss ticks (Tick)
system.cpu.icache.ReadReq.mshrMissLatency::total     41510291                       # number of ReadReq MSHR miss ticks (Tick)
system.cpu.icache.ReadReq.mshrMissRate::cpu.inst     0.000003                       # mshr miss rate for ReadReq accesses (Ratio)
system.cpu.icache.ReadReq.mshrMissRate::total     0.000003                       # mshr miss rate for ReadReq accesses (Ratio)
system.cpu.icache.ReadReq.avgMshrMissLatency::cpu.inst 72953.059754                       # average ReadReq mshr miss latency ((Tick/Count))
system.cpu.icache.ReadReq.avgMshrMissLatency::total 72953.059754                       # average ReadReq mshr miss latency ((Tick/Count))
system.cpu.icache.power_state.pwrStateResidencyTicks::UNDEFINED 1144649474256                       # Cumulative time (in ticks) in various power states (Tick)
system.cpu.icache.tags.tagsInUse           426.728653                       # Average ticks per tags in use ((Tick/Count))
system.cpu.icache.tags.totalRefs            182143509                       # Total number of references to valid blocks. (Count)
system.cpu.icache.tags.sampledRefs                569                       # Sample count of references to valid blocks. (Count)
system.cpu.icache.tags.avgRefs           320111.615114                       # Average number of references to valid blocks. ((Count/Count))
system.cpu.icache.tags.warmupTick               81500                       # The tick when the warmup percentage was hit. (Tick)
system.cpu.icache.tags.occupancies::cpu.inst   426.728653                       # Average occupied blocks per tick, per requestor ((Count/Tick))
system.cpu.icache.tags.avgOccs::cpu.inst     0.833454                       # Average percentage of cache occupancy ((Ratio/Tick))
system.cpu.icache.tags.avgOccs::total        0.833454                       # Average percentage of cache occupancy ((Ratio/Tick))
system.cpu.icache.tags.occupanciesTaskId::1024          437                       # Occupied blocks per task id (Count)
system.cpu.icache.tags.ageTaskId_1024::4          437                       # Occupied blocks per task id, per block age (Count)
system.cpu.icache.tags.ratioOccsTaskId::1024     0.853516                       # Ratio of occupied blocks and all blocks, per task id (Ratio)
system.cpu.icache.tags.tagAccesses          728575269                       # Number of tag accesses (Count)
system.cpu.icache.tags.dataAccesses         728575269                       # Number of data accesses (Count)
system.cpu.icache.tags.power_state.pwrStateResidencyTicks::UNDEFINED 1144649474256                       # Cumulative time (in ticks) in various power states (Tick)
system.cpu.iew.idleCycles                           0                       # Number of cycles IEW is idle (Cycle)
system.cpu.iew.squashCycles                   9173159                       # Number of cycles IEW is squashing (Cycle)
system.cpu.iew.blockCycles                 1235874143                       # Number of cycles IEW is blocking (Cycle)
system.cpu.iew.unblockCycles                 96686667                       # Number of cycles IEW is unblocking (Cycle)
system.cpu.iew.dispatchedInsts             1418713713                       # Number of instructions dispatched to IQ (Count)
system.cpu.iew.dispSquashedInsts              3185892                       # Number of squashed instructions skipped by dispatch (Count)
system.cpu.iew.dispLoadInsts                345352222                       # Number of dispatched load instructions (Count)
system.cpu.iew.dispStoreInsts               143308425                       # Number of dispatched store instructions (Count)
system.cpu.iew.dispNonSpecInsts               1269463                       # Number of dispatched non-speculative instructions (Count)
system.cpu.iew.iqFullEvents                   6588187                       # Number of times the IQ has become full, causing a stall (Count)
system.cpu.iew.lsqFullEvents                 82799144                       # Number of times the LSQ has become full, causing a stall (Count)
system.cpu.iew.memOrderViolationEvents         869632                       # Number of memory order violations (Count)
system.cpu.iew.predictedTakenIncorrect        4318893                       # Number of branches that were predicted taken incorrectly (Count)
system.cpu.iew.predictedNotTakenIncorrect      5086086                       # Number of branches that were predicted not taken incorrectly (Count)
system.cpu.iew.branchMispredicts              9404979                       # Number of branch mispredicts detected at execute (Count)
system.cpu.iew.instsToCommit               1242896034                       # Cumulative count of insts sent to commit (Count)
system.cpu.iew.writebackCount              1238162704                       # Cumulative count of insts written-back (Count)
system.cpu.iew.producerInst                 683907258                       # Number of instructions producing a value (Count)
system.cpu.iew.consumerInst                1206816096                       # Number of instructions consuming a value (Count)
system.cpu.iew.wbRate                        0.601423                       # Insts written-back per cycle ((Count/Cycle))
system.cpu.iew.wbFanout                      0.566704                       # Average fanout of values written-back ((Count/Count))
system.cpu.lsq0.forwLoads                    13370355                       # Number of loads that had data forwarded from stores (Count)
system.cpu.lsq0.squashedLoads                88119357                       # Number of loads squashed (Count)
system.cpu.lsq0.ignoredResponses               257849                       # Number of memory responses ignored because the instruction is squashed (Count)
system.cpu.lsq0.memOrderViolation              869632                       # Number of memory ordering violations (Count)
system.cpu.lsq0.squashedStores               28947001                       # Number of stores squashed (Count)
system.cpu.lsq0.rescheduledLoads              5083949                       # Number of loads that were rescheduled (Count)
system.cpu.lsq0.blockedByCache               15330526                       # Number of times an access to memory failed due to the cache being blocked (Count)
system.cpu.lsq0.loadToUse::samples          257022175                       # Distribution of cycle latency between the first time a load is issued and its completion (Unspecified)
system.cpu.lsq0.loadToUse::mean             24.137253                       # Distribution of cycle latency between the first time a load is issued and its completion (Unspecified)
system.cpu.lsq0.loadToUse::stdev            59.276891                       # Distribution of cycle latency between the first time a load is issued and its completion (Unspecified)
system.cpu.lsq0.loadToUse::0-9              201313572     78.33%     78.33% # Distribution of cycle latency between the first time a load is issued and its completion (Unspecified)
system.cpu.lsq0.loadToUse::10-19              2372854      0.92%     79.25% # Distribution of cycle latency between the first time a load is issued and its completion (Unspecified)
system.cpu.lsq0.loadToUse::20-29             16612981      6.46%     85.71% # Distribution of cycle latency between the first time a load is issued and its completion (Unspecified)
system.cpu.lsq0.loadToUse::30-39              2797115      1.09%     86.80% # Distribution of cycle latency between the first time a load is issued and its completion (Unspecified)
system.cpu.lsq0.loadToUse::40-49              2532996      0.99%     87.79% # Distribution of cycle latency between the first time a load is issued and its completion (Unspecified)
system.cpu.lsq0.loadToUse::50-59              1260663      0.49%     88.28% # Distribution of cycle latency between the first time a load is issued and its completion (Unspecified)
[...]
system.mem_ctrl.dram.perBankRdBursts::8        479736                       # Per bank write bursts (Count)
system.mem_ctrl.dram.perBankRdBursts::9        479888                       # Per bank write bursts (Count)
system.mem_ctrl.dram.perBankRdBursts::10       467027                       # Per bank write bursts (Count)
system.mem_ctrl.dram.perBankRdBursts::11       466225                       # Per bank write bursts (Count)
system.mem_ctrl.dram.perBankRdBursts::12       446912                       # Per bank write bursts (Count)
system.mem_ctrl.dram.perBankRdBursts::13       461416                       # Per bank write bursts (Count)
system.mem_ctrl.dram.perBankRdBursts::14       458423                       # Per bank write bursts (Count)
system.mem_ctrl.dram.perBankRdBursts::15       459840                       # Per bank write bursts (Count)
system.mem_ctrl.dram.perBankRdBursts::16       446035                       # Per bank write bursts (Count)
system.mem_ctrl.dram.perBankRdBursts::17       461347                       # Per bank write bursts (Count)
system.mem_ctrl.dram.perBankRdBursts::18       430882                       # Per bank write bursts (Count)
system.mem_ctrl.dram.perBankRdBursts::19       447354                       # Per bank write bursts (Count)
system.mem_ctrl.dram.perBankRdBursts::20       439025                       # Per bank write bursts (Count)
system.mem_ctrl.dram.perBankRdBursts::21       456718                       # Per bank write bursts (Count)
system.mem_ctrl.dram.perBankRdBursts::22       448567                       # Per bank write bursts (Count)
system.mem_ctrl.dram.perBankRdBursts::23       465691                       # Per bank write bursts (Count)
system.mem_ctrl.dram.perBankRdBursts::24       474090                       # Per bank write bursts (Count)
system.mem_ctrl.dram.perBankRdBursts::25       464758                       # Per bank write bursts (Count)
system.mem_ctrl.dram.perBankRdBursts::26       462163                       # Per bank write bursts (Count)
system.mem_ctrl.dram.perBankRdBursts::27       470829                       # Per bank write bursts (Count)
system.mem_ctrl.dram.perBankRdBursts::28       468456                       # Per bank write bursts (Count)
system.mem_ctrl.dram.perBankRdBursts::29       470031                       # Per bank write bursts (Count)
system.mem_ctrl.dram.perBankRdBursts::30       482552                       # Per bank write bursts (Count)
system.mem_ctrl.dram.perBankRdBursts::31       466591                       # Per bank write bursts (Count)
system.mem_ctrl.dram.perBankWrBursts::0        179800                       # Per bank write bursts (Count)
system.mem_ctrl.dram.perBankWrBursts::1        172916                       # Per bank write bursts (Count)
system.mem_ctrl.dram.perBankWrBursts::2        180281                       # Per bank write bursts (Count)
system.mem_ctrl.dram.perBankWrBursts::3        172749                       # Per bank write bursts (Count)
system.mem_ctrl.dram.perBankWrBursts::4        178768                       # Per bank write bursts (Count)
system.mem_ctrl.dram.perBankWrBursts::5        172122                       # Per bank write bursts (Count)
system.mem_ctrl.dram.perBankWrBursts::6        180189                       # Per bank write bursts (Count)
system.mem_ctrl.dram.perBankWrBursts::7        171604                       # Per bank write bursts (Count)
system.mem_ctrl.dram.perBankWrBursts::8        179844                       # Per bank write bursts (Count)
system.mem_ctrl.dram.perBankWrBursts::9        179986                       # Per bank write bursts (Count)
system.mem_ctrl.dram.perBankWrBursts::10       172400                       # Per bank write bursts (Count)
system.mem_ctrl.dram.perBankWrBursts::11       179248                       # Per bank write bursts (Count)
system.mem_ctrl.dram.perBankWrBursts::12       171849                       # Per bank write bursts (Count)
system.mem_ctrl.dram.perBankWrBursts::13       179155                       # Per bank write bursts (Count)
system.mem_ctrl.dram.perBankWrBursts::14       176990                       # Per bank write bursts (Count)
system.mem_ctrl.dram.perBankWrBursts::15       179165                       # Per bank write bursts (Count)
system.mem_ctrl.dram.perBankWrBursts::16       172887                       # Per bank write bursts (Count)
system.mem_ctrl.dram.perBankWrBursts::17       178992                       # Per bank write bursts (Count)
system.mem_ctrl.dram.perBankWrBursts::18       163603                       # Per bank write bursts (Count)
system.mem_ctrl.dram.perBankWrBursts::19       178715                       # Per bank write bursts (Count)
system.mem_ctrl.dram.perBankWrBursts::20       163676                       # Per bank write bursts (Count)
system.mem_ctrl.dram.perBankWrBursts::21       180881                       # Per bank write bursts (Count)
system.mem_ctrl.dram.perBankWrBursts::22       172690                       # Per bank write bursts (Count)
system.mem_ctrl.dram.perBankWrBursts::23       179472                       # Per bank write bursts (Count)
system.mem_ctrl.dram.perBankWrBursts::24       172785                       # Per bank write bursts (Count)
system.mem_ctrl.dram.perBankWrBursts::25       179921                       # Per bank write bursts (Count)
system.mem_ctrl.dram.perBankWrBursts::26       172670                       # Per bank write bursts (Count)
system.mem_ctrl.dram.perBankWrBursts::27       180212                       # Per bank write bursts (Count)
system.mem_ctrl.dram.perBankWrBursts::28       179892                       # Per bank write bursts (Count)
system.mem_ctrl.dram.perBankWrBursts::29       172475                       # Per bank write bursts (Count)
system.mem_ctrl.dram.perBankWrBursts::30       179438                       # Per bank write bursts (Count)
system.mem_ctrl.dram.perBankWrBursts::31       172123                       # Per bank write bursts (Count)
system.mem_ctrl.dram.totQLat             292508772352                       # Total ticks spent queuing (Tick)
system.mem_ctrl.dram.totBusLat            49602094556                       # Total ticks spent in databus transfers (Tick)
system.mem_ctrl.dram.totMemAccLat        552904882188                       # Total ticks spent from burst creation until serviced by the DRAM (Tick)
system.mem_ctrl.dram.avgQLat                 19649.15                       # Average queueing delay per DRAM burst ((Tick/Count))
system.mem_ctrl.dram.avgBusLat                3332.00                       # Average bus latency per DRAM burst ((Tick/Count))
system.mem_ctrl.dram.avgMemAccLat            37141.15                       # Average memory access latency per DRAM burst ((Tick/Count))
system.mem_ctrl.dram.readRowHits              7035679                       # Number of row buffer hits during reads (Count)
system.mem_ctrl.dram.writeRowHits             2826393                       # Number of row buffer hits during writes (Count)
system.mem_ctrl.dram.readRowHitRate             47.26                       # Row buffer hit rate for reads (Ratio)
system.mem_ctrl.dram.writeRowHitRate            50.22                       # Row buffer hit rate for writes (Ratio)
system.mem_ctrl.dram.bytesPerActivate::samples     10652002                       # Bytes accessed per row activation (Byte)
system.mem_ctrl.dram.bytesPerActivate::mean   123.253715                       # Bytes accessed per row activation (Byte)
system.mem_ctrl.dram.bytesPerActivate::gmean    85.585507                       # Bytes accessed per row activation (Byte)
system.mem_ctrl.dram.bytesPerActivate::stdev   178.360890                       # Bytes accessed per row activation (Byte)
system.mem_ctrl.dram.bytesPerActivate::0-127      8378173     78.65%     78.65% # Bytes accessed per row activation (Byte)
system.mem_ctrl.dram.bytesPerActivate::128-255      1284053     12.05%     90.71% # Bytes accessed per row activation (Byte)
system.mem_ctrl.dram.bytesPerActivate::256-383       266930      2.51%     93.21% # Bytes accessed per row activation (Byte)
system.mem_ctrl.dram.bytesPerActivate::384-511       180028      1.69%     94.90% # Bytes accessed per row activation (Byte)
system.mem_ctrl.dram.bytesPerActivate::512-639       127346      1.20%     96.10% # Bytes accessed per row activation (Byte)
system.mem_ctrl.dram.bytesPerActivate::640-767        84188      0.79%     96.89% # Bytes accessed per row activation (Byte)
system.mem_ctrl.dram.bytesPerActivate::768-895        61995      0.58%     97.47% # Bytes accessed per row activation (Byte)
system.mem_ctrl.dram.bytesPerActivate::896-1023        48026      0.45%     97.92% # Bytes accessed per row activation (Byte)
system.mem_ctrl.dram.bytesPerActivate::1024-1151       221263      2.08%    100.00% # Bytes accessed per row activation (Byte)
system.mem_ctrl.dram.bytesPerActivate::total     10652002                       # Bytes accessed per row activation (Byte)
system.mem_ctrl.dram.bytesRead              952741312                       # Total bytes read (Byte)
system.mem_ctrl.dram.bytesWritten           360159872                       # Total bytes written (Byte)
system.mem_ctrl.dram.avgRdBW               832.343292                       # Average DRAM read bandwidth in MiBytes/s ((Byte/Second))
system.mem_ctrl.dram.avgWrBW               314.646431                       # Average DRAM write bandwidth in MiBytes/s ((Byte/Second))
system.mem_ctrl.dram.peakBW                  19207.00                       # Theoretical peak bandwidth in MiByte/s ((Byte/Second))
system.mem_ctrl.dram.busUtil                     5.97                       # Data bus utilization in percentage (Ratio)
system.mem_ctrl.dram.busUtilRead                 4.33                       # Data bus utilization in percentage for reads (Ratio)
system.mem_ctrl.dram.busUtilWrite                1.64                       # Data bus utilization in percentage for writes (Ratio)
system.mem_ctrl.dram.pageHitRate                48.07                       # Row buffer hit rate, read and write combined (Ratio)
system.mem_ctrl.dram.power_state.pwrStateResidencyTicks::UNDEFINED 1144649474256                       # Cumulative time (in ticks) in various power states (Tick)
system.mem_ctrl.dram.rank0.actEnergy     16650000214.847279                       # Energy for activate commands per rank (pJ) (Joule)
system.mem_ctrl.dram.rank0.preEnergy     22135928653.372620                       # Energy for precharge commands per rank (pJ) (Joule)
system.mem_ctrl.dram.rank0.readEnergy    31679849741.299084                       # Energy for read commands per rank (pJ) (Joule)
system.mem_ctrl.dram.rank0.writeEnergy   10625501218.752157                       # Energy for write commands per rank (pJ) (Joule)
system.mem_ctrl.dram.rank0.refreshEnergy 203672677240.109802                       # Energy for refresh commands per rank (pJ) (Joule)
system.mem_ctrl.dram.rank0.actBackEnergy 807860461813.444092                       # Energy for active background per rank (pJ) (Joule)
system.mem_ctrl.dram.rank0.preBackEnergy 126498234538.250275                       # Energy for precharge background per rank (pJ) (Joule)
system.mem_ctrl.dram.rank0.actPowerDownEnergy            0                       # Energy for active power-down per rank (pJ) (Joule)
system.mem_ctrl.dram.rank0.prePowerDownEnergy            0                       # Energy for precharge power-down per rank (pJ) (Joule)
system.mem_ctrl.dram.rank0.selfRefreshEnergy            0                       # Energy for self refresh per rank (pJ) (Joule)
system.mem_ctrl.dram.rank0.totalEnergy   1219122653420.967285                       # Total energy per rank (pJ) (Joule)
system.mem_ctrl.dram.rank0.averagePower   1065.061996                       # Core power per rank (mW) (Watt)
system.mem_ctrl.dram.rank0.totalIdleTime            0                       # Total Idle time Per DRAM Rank (Tick)
system.mem_ctrl.dram.rank0.pwrStateTime::IDLE 188459122580                       # Time in different power states (Tick)
system.mem_ctrl.dram.rank0.pwrStateTime::REF  51455600000                       # Time in different power states (Tick)
system.mem_ctrl.dram.rank0.pwrStateTime::SREF            0                       # Time in different power states (Tick)
system.mem_ctrl.dram.rank0.pwrStateTime::PRE_PDN            0                       # Time in different power states (Tick)
system.mem_ctrl.dram.rank0.pwrStateTime::ACT 904734751676                       # Time in different power states (Tick)
system.mem_ctrl.dram.rank0.pwrStateTime::ACT_PDN            0                       # Time in different power states (Tick)
system.mem_ctrl.dram.rank1.actEnergy     16570974157.919041                       # Energy for activate commands per rank (pJ) (Joule)
system.mem_ctrl.dram.rank1.preEnergy     22030897694.567444                       # Energy for precharge commands per rank (pJ) (Joule)
system.mem_ctrl.dram.rank1.readEnergy    30937834426.195580                       # Energy for read commands per rank (pJ) (Joule)
system.mem_ctrl.dram.rank1.writeEnergy   10525412470.272142                       # Energy for write commands per rank (pJ) (Joule)
system.mem_ctrl.dram.rank1.refreshEnergy 203672677240.109802                       # Energy for refresh commands per rank (pJ) (Joule)
system.mem_ctrl.dram.rank1.actBackEnergy 805827960027.476807                       # Energy for active background per rank (pJ) (Joule)
system.mem_ctrl.dram.rank1.preBackEnergy 128059930825.768555                       # Energy for precharge background per rank (pJ) (Joule)
system.mem_ctrl.dram.rank1.actPowerDownEnergy            0                       # Energy for active power-down per rank (pJ) (Joule)
system.mem_ctrl.dram.rank1.prePowerDownEnergy            0                       # Energy for precharge power-down per rank (pJ) (Joule)
system.mem_ctrl.dram.rank1.selfRefreshEnergy            0                       # Energy for self refresh per rank (pJ) (Joule)
system.mem_ctrl.dram.rank1.totalEnergy   1217625686843.234863                       # Total energy per rank (pJ) (Joule)
system.mem_ctrl.dram.rank1.averagePower   1063.754201                       # Core power per rank (mW) (Watt)
system.mem_ctrl.dram.rank1.totalIdleTime            0                       # Total Idle time Per DRAM Rank (Tick)
system.mem_ctrl.dram.rank1.pwrStateTime::IDLE 190970814552                       # Time in different power states (Tick)
system.mem_ctrl.dram.rank1.pwrStateTime::REF  51455600000                       # Time in different power states (Tick)
system.mem_ctrl.dram.rank1.pwrStateTime::SREF            0                       # Time in different power states (Tick)
system.mem_ctrl.dram.rank1.pwrStateTime::PRE_PDN            0                       # Time in different power states (Tick)
system.mem_ctrl.dram.rank1.pwrStateTime::ACT 902223059704                       # Time in different power states (Tick)
system.mem_ctrl.dram.rank1.pwrStateTime::ACT_PDN            0                       # Time in different power states (Tick)
system.mem_ctrl.power_state.pwrStateResidencyTicks::UNDEFINED 1144649474256                       # Cumulative time (in ticks) in various power states (Tick)
system.membus.transDist::ReadResp            14578466                       # Transaction distribution (Count)
system.membus.transDist::WritebackDirty       5627558                       # Transaction distribution (Count)
system.membus.transDist::CleanEvict           9232199                       # Transaction distribution (Count)
system.membus.transDist::UpgradeReq                 7                       # Transaction distribution (Count)
system.membus.transDist::ReadExReq             314796                       # Transaction distribution (Count)
system.membus.transDist::ReadExResp            314796                       # Transaction distribution (Count)
system.membus.transDist::ReadSharedReq       14578466                       # Transaction distribution (Count)
system.membus.pktCount_system.l2cache.mem_side_port::system.mem_ctrl.port     44646288                       # Packet count per connected requestor and responder (Count)
system.membus.pktCount::total                44646288                       # Packet count per connected requestor and responder (Count)
system.membus.pktSize_system.l2cache.mem_side_port::system.mem_ctrl.port   1313332480                       # Cumulative packet size per connected requestor and responder (Byte)
system.membus.pktSize::total               1313332480                       # Cumulative packet size per connected requestor and responder (Byte)
system.membus.snoops                                0                       # Total snoops (Count)
system.membus.snoopTraffic                          0                       # Total snoop traffic (Byte)
system.membus.snoopFanout::samples           14893269                       # Request fanout histogram (Count)
system.membus.snoopFanout::mean                     0                       # Request fanout histogram (Count)
system.membus.snoopFanout::stdev                    0                       # Request fanout histogram (Count)
system.membus.snoopFanout::underflows               0      0.00%      0.00% # Request fanout histogram (Count)
system.membus.snoopFanout::0                 14893269    100.00%    100.00% # Request fanout histogram (Count)
system.membus.snoopFanout::1                        0      0.00%    100.00% # Request fanout histogram (Count)
system.membus.snoopFanout::overflows                0      0.00%    100.00% # Request fanout histogram (Count)
system.membus.snoopFanout::min_value                0                       # Request fanout histogram (Count)
system.membus.snoopFanout::max_value                0                       # Request fanout histogram (Count)
system.membus.snoopFanout::total             14893269                       # Request fanout histogram (Count)
system.membus.power_state.pwrStateResidencyTicks::UNDEFINED 1144649474256                       # Cumulative time (in ticks) in various power states (Tick)
system.membus.reqLayer0.occupancy         28608162132                       # Layer occupancy (ticks) (Tick)
system.membus.reqLayer0.utilization               0.0                       # Layer utilization (Ratio)
system.membus.respLayer0.occupancy        39260087488                       # Layer occupancy (ticks) (Tick)
system.membus.respLayer0.utilization              0.0                       # Layer utilization (Ratio)
system.membus.snoop_filter.totRequests       29753026                       # Total number of requests made to the snoop filter. (Count)
system.membus.snoop_filter.hitSingleRequests     14860066                       # Number of requests hitting in the snoop filter with a single holder of the requested data. (Count)
system.membus.snoop_filter.hitMultiRequests            0                       # Number of requests hitting in the snoop filter with multiple (>1) holders of the requested data. (Count)
system.membus.snoop_filter.totSnoops                0                       # Total number of snoops made to the snoop filter. (Count)
system.membus.snoop_filter.hitSingleSnoops            0                       # Number of snoops hitting in the snoop filter with a single holder of the requested data. (Count)
system.membus.snoop_filter.hitMultiSnoops            0                       # Number of snoops hitting in the snoop filter with multiple (>1) holders of the requested data. (Count)
system.workload.inst.arm                            0                       # number of arm instructions executed (Count)
system.workload.inst.quiesce                        0                       # number of quiesce instructions executed (Count)

---------- End Simulation Statistics   ----------
