
---------- Begin Simulation Statistics ----------
simSeconds                                   1.788569                       # Number of seconds simulated (Second)
simTicks                                 1788568501880                       # Number of ticks simulated (Tick)
finalTick                                1788568501880                       # Number of ticks from beginning of simulation (restored from checkpoints and never reset) (Tick)
simFreq                                  1000000000000                       # The number of ticks per simulated second ((Tick/Second))
hostSeconds                                   2907.23                       # Real time elapsed on the host (Second)
hostTickRate                                615213955                       # The number of ticks simulated per host second (ticks/s) ((Tick/Second))
hostMemory                                    2286720                       # Number of bytes of host memory used (Byte)
simInsts                                   1000000001                       # Number of instructions simulated (Count)
simOps                                     1084388564                       # Number of ops (including micro ops) simulated (Count)
hostInstRate                                   343970                       # Simulator instruction rate (inst/s) ((Count/Second))
hostOpRate                                     372997                       # Simulator op (including micro ops) rate (op/s) ((Count/Second))
system.clk_domain.clock                           500                       # Clock period in ticks (Tick)
system.clk_domain.voltage_domain.voltage            1                       # Voltage in Volts (Volt)
system.cpu.numCycles                       4833968924                       # Number of cpu cycles simulated (Cycle)
system.cpu.numWorkItemsStarted                      0                       # Number of work items this cpu started (Count)
system.cpu.numWorkItemsCompleted                    0                       # Number of work items this cpu completed (Count)
system.cpu.numInsts                        1000000001                       # Number of instructions committed (Count)
system.cpu.numOps                          1084388564                       # Number of ops (including micro ops) committed (Count)
system.cpu.numDiscardedOps                   25523103                       # Number of ops (including micro ops) which were discarded before commit (Count)
system.cpu.numFetchSuspends                         0                       # Number of times Execute suspended instruction fetching (Count)
system.cpu.cpi                               4.833969                       # CPI: cycles per instruction ((Cycle/Count))
system.cpu.ipc                               0.206869                       # IPC: instructions per cycle ((Count/Cycle))
system.cpu.committedInstType_0::No_OpClass            0      0.00%      0.00% # Class of committed instruction (Count)
system.cpu.committedInstType_0::IntAlu      710092239     65.48%     65.48% # Class of committed instruction (Count)
system.cpu.committedInstType_0::IntMult       2700418      0.25%     65.73% # Class of committed instruction (Count)
system.cpu.committedInstType_0::IntDiv              0      0.00%     65.73% # Class of committed instruction (Count)
system.cpu.committedInstType_0::FloatAdd            0      0.00%     65.73% # Class of committed instruction (Count)
system.cpu.committedInstType_0::FloatCmp            0      0.00%     65.73% # Class of committed instruction (Count)
system.cpu.committedInstType_0::FloatCvt            0      0.00%     65.73% # Class of committed instruction (Count)
system.cpu.committedInstType_0::FloatMult            0      0.00%     65.73% # Class of committed instruction (Count)
system.cpu.committedInstType_0::FloatMultAcc            0      0.00%     65.73% # Class of committed instruction (Count)
system.cpu.committedInstType_0::FloatDiv            0      0.00%     65.73% # Class of committed instruction (Count)
system.cpu.committedInstType_0::FloatMisc            0      0.00%     65.73% # Class of committed instruction (Count)
system.cpu.committedInstType_0::FloatSqrt            0      0.00%     65.73% # Class of committed instruction (Count)
system.cpu.committedInstType_0::SimdAdd             0      0.00%     65.73% # Class of committed instruction (Count)
system.cpu.committedInstType_0::SimdAddAcc            0      0.00%     65.73% # Class of committed instruction (Count)
system.cpu.committedInstType_0::SimdAlu             0      0.00%     65.73% # Class of committed instruction (Count)
system.cpu.committedInstType_0::SimdCmp             0      0.00%     65.73% # Class of committed instruction (Count)
system.cpu.committedInstType_0::SimdCvt             0      0.00%     65.73% # Class of committed instruction (Count)
system.cpu.committedInstType_0::SimdMisc            0      0.00%     65.73% # Class of committed instruction (Count)
system.cpu.committedInstType_0::SimdMult            0      0.00%     65.73% # Class of committed instruction (Count)
system.cpu.committedInstType_0::SimdMultAcc            0      0.00%     65.73% # Class of committed instruction (Count)
system.cpu.committedInstType_0::SimdShift            0      0.00%     65.73% # Class of committed instruction (Count)
system.cpu.committedInstType_0::SimdShiftAcc            0      0.00%     65.73% # Class of committed instruction (Count)
system.cpu.committedInstType_0::SimdDiv             0      0.00%     65.73% # Class of committed instruction (Count)
system.cpu.committedInstType_0::SimdSqrt            0      0.00%     65.73% # Class of committed instruction (Count)
system.cpu.committedInstType_0::SimdFloatAdd            0      0.00%     65.73% # Class of committed instruction (Count)
system.cpu.committedInstType_0::SimdFloatAlu            0      0.00%     65.73% # Class of committed instruction (Count)
system.cpu.committedInstType_0::SimdFloatCmp            0      0.00%     65.73% # Class of committed instruction (Count)
system.cpu.committedInstType_0::SimdFloatCvt            0      0.00%     65.73% # Class of committed instruction (Count)
system.cpu.committedInstType_0::SimdFloatDiv            0      0.00%     65.73% # Class of committed instruction (Count)
system.cpu.committedInstType_0::SimdFloatMisc            3      0.00%     65.73% # Class of committed instruction (Count)
system.cpu.committedInstType_0::SimdFloatMult            0      0.00%     65.73% # Class of committed instruction (Count)
system.cpu.committedInstType_0::SimdFloatMultAcc            0      0.00%     65.73% # Class of committed instruction (Count)
system.cpu.committedInstType_0::SimdFloatSqrt            0      0.00%     65.73% # Class of committed instruction (Count)
system.cpu.committedInstType_0::SimdReduceAdd            0      0.00%     65.73% # Class of committed instruction (Count)
system.cpu.committedInstType_0::SimdReduceAlu            0      0.00%     65.73% # Class of committed instruction (Count)
system.cpu.committedInstType_0::SimdReduceCmp            0      0.00%     65.73% # Class of committed instruction (Count)
system.cpu.committedInstType_0::SimdFloatReduceAdd            0      0.00%     65.73% # Class of committed instruction (Count)
system.cpu.committedInstType_0::SimdFloatReduceCmp            0      0.00%     65.73% # Class of committed instruction (Count)
system.cpu.committedInstType_0::SimdAes             0      0.00%     65.73% # Class of committed instruction (Count)
system.cpu.committedInstType_0::SimdAesMix            0      0.00%     65.73% # Class of committed instruction (Count)
system.cpu.committedInstType_0::SimdSha1Hash            0      0.00%     65.73% # Class of committed instruction (Count)
system.cpu.committedInstType_0::SimdSha1Hash2            0      0.00%     65.73% # Class of committed instruction (Count)
system.cpu.committedInstType_0::SimdSha256Hash            0      0.00%     65.73% # Class of committed instruction (Count)
system.cpu.committedInstType_0::SimdSha256Hash2            0      0.00%     65.73% # Class of committed instruction (Count)
system.cpu.committedInstType_0::SimdShaSigma2            0      0.00%     65.73% # Class of committed instruction (Count)
system.cpu.committedInstType_0::SimdShaSigma3            0      0.00%     65.73% # Class of committed instruction (Count)
system.cpu.committedInstType_0::SimdPredAlu            0      0.00%     65.73% # Class of committed instruction (Count)
system.cpu.committedInstType_0::MemRead     257231526     23.72%     89.45% # Class of committed instruction (Count)
system.cpu.committedInstType_0::MemWrite    114364378     10.55%    100.00% # Class of committed instruction (Count)
system.cpu.committedInstType_0::FloatMemRead            0      0.00%    100.00% # Class of committed instruction (Count)
system.cpu.committedInstType_0::FloatMemWrite            0      0.00%    100.00% # Class of committed instruction (Count)
system.cpu.committedInstType_0::IprAccess            0      0.00%    100.00% # Class of committed instruction (Count)
system.cpu.committedInstType_0::InstPrefetch            0      0.00%    100.00% # Class of committed instruction (Count)
system.cpu.committedInstType_0::total      1084388564                       # Class of committed instruction (Count)
system.cpu.branchPred.lookups               261241488                       # Number of BP lookups (Count)
system.cpu.branchPred.condPredicted         216838033                       # Number of conditional branches predicted (Count)
system.cpu.branchPred.condIncorrect           9304238                       # Number of conditional branches incorrect (Count)
system.cpu.branchPred.BTBLookups            117424602                       # Number of BTB lookups (Count)
system.cpu.branchPred.BTBHits               113925149                       # Number of BTB hits (Count)
system.cpu.branchPred.BTBHitRatio            0.970198                       # BTB Hit Ratio (Ratio)
system.cpu.branchPred.RASUsed                 8186357                       # Number of times the RAS was used to get a target. (Count)
system.cpu.branchPred.RASIncorrect                  3                       # Number of incorrect RAS predictions. (Count)
system.cpu.branchPred.indirectLookups         1928952                       # Number of indirect predictor lookups. (Count)
system.cpu.branchPred.indirectHits            1322388                       # Number of indirect target hits. (Count)
system.cpu.branchPred.indirectMisses           606564                       # Number of indirect misses. (Count)
system.cpu.branchPred.indirectMispredicted         9504                       # Number of mispredicted indirect branches. (Count)
system.cpu.dcache.demandHits::cpu.data      329249673                       # number of demand (read+write) hits (Count)
system.cpu.dcache.demandHits::total         329249673                       # number of demand (read+write) hits (Count)
system.cpu.dcache.overallHits::cpu.data     329460356                       # number of overall hits (Count)
system.cpu.dcache.overallHits::total        329460356                       # number of overall hits (Count)
system.cpu.dcache.demandMisses::cpu.data     39661181                       # number of demand (read+write) misses (Count)
system.cpu.dcache.demandMisses::total        39661181                       # number of demand (read+write) misses (Count)
system.cpu.dcache.overallMisses::cpu.data     39661182                       # number of overall misses (Count)
system.cpu.dcache.overallMisses::total       39661182                       # number of overall misses (Count)
system.cpu.dcache.demandMissLatency::cpu.data 1860948208730                       # number of demand (read+write) miss ticks (Tick)
system.cpu.dcache.demandMissLatency::total 1860948208730                       # number of demand (read+write) miss ticks (Tick)
system.cpu.dcache.overallMissLatency::cpu.data 1860948208730                       # number of overall miss ticks (Tick)
system.cpu.dcache.overallMissLatency::total 1860948208730                       # number of overall miss ticks (Tick)
system.cpu.dcache.demandAccesses::cpu.data    368910854                       # number of demand (read+write) accesses (Count)
system.cpu.dcache.demandAccesses::total     368910854                       # number of demand (read+write) accesses (Count)
system.cpu.dcache.overallAccesses::cpu.data    369121538                       # number of overall (read+write) accesses (Count)
system.cpu.dcache.overallAccesses::total    369121538                       # number of overall (read+write) accesses (Count)
system.cpu.dcache.demandMissRate::cpu.data     0.107509                       # miss rate for demand accesses (Ratio)
system.cpu.dcache.demandMissRate::total      0.107509                       # miss rate for demand accesses (Ratio)
system.cpu.dcache.overallMissRate::cpu.data     0.107447                       # miss rate for overall accesses (Ratio)
system.cpu.dcache.overallMissRate::total     0.107447                       # miss rate for overall accesses (Ratio)
system.cpu.dcache.demandAvgMissLatency::cpu.data 46921.149643                       # average overall miss latency in ticks ((Tick/Count))
system.cpu.dcache.demandAvgMissLatency::total 46921.149643                       # average overall miss latency in ticks ((Tick/Count))
system.cpu.dcache.overallAvgMissLatency::cpu.data 46921.148460                       # average overall miss latency ((Tick/Count))
system.cpu.dcache.overallAvgMissLatency::total 46921.148460                       # average overall miss latency ((Tick/Count))
system.cpu.dcache.blockedCycles::no_mshrs            0                       # number of cycles access was blocked (Cycle)
system.cpu.dcache.blockedCycles::no_targets            0                       # number of cycles access was blocked (Cycle)
system.cpu.dcache.blockedCauses::no_mshrs            0                       # number of times access was blocked (Count)
system.cpu.dcache.blockedCauses::no_targets            0                       # number of times access was blocked (Count)
system.cpu.dcache.avgBlocked::no_mshrs            nan                       # average number of cycles each access was blocked ((Cycle/Count))
system.cpu.dcache.avgBlocked::no_targets          nan                       # average number of cycles each access was blocked ((Cycle/Count))
system.cpu.dcache.writebacks::writebacks      9969692                       # number of writebacks (Count)
system.cpu.dcache.writebacks::total           9969692                       # number of writebacks (Count)
system.cpu.dcache.demandMshrHits::cpu.data      7246052                       # number of demand (read+write) MSHR hits (Count)
system.cpu.dcache.demandMshrHits::total       7246052                       # number of demand (read+write) MSHR hits (Count)
system.cpu.dcache.overallMshrHits::cpu.data      7246052                       # number of overall MSHR hits (Count)
system.cpu.dcache.overallMshrHits::total      7246052                       # number of overall MSHR hits (Count)
system.cpu.dcache.demandMshrMisses::cpu.data     32415129                       # number of demand (read+write) MSHR misses (Count)
system.cpu.dcache.demandMshrMisses::total     32415129                       # number of demand (read+write) MSHR misses (Count)
system.cpu.dcache.overallMshrMisses::cpu.data     32415130                       # number of overall MSHR misses (Count)
system.cpu.dcache.overallMshrMisses::total     32415130                       # number of overall MSHR misses (Count)
system.cpu.dcache.demandMshrMissLatency::cpu.data 1437871760910                       # number of demand (read+write) MSHR miss ticks (Tick)
system.cpu.dcache.demandMshrMissLatency::total 1437871760910                       # number of demand (read+write) MSHR miss ticks (Tick)
system.cpu.dcache.overallMshrMissLatency::cpu.data 1437871826250                       # number of overall MSHR miss ticks (Tick)
system.cpu.dcache.overallMshrMissLatency::total 1437871826250                       # number of overall MSHR miss ticks (Tick)
system.cpu.dcache.demandMshrMissRate::cpu.data     0.087867                       # mshr miss ratio for demand accesses (Ratio)
system.cpu.dcache.demandMshrMissRate::total     0.087867                       # mshr miss ratio for demand accesses (Ratio)
system.cpu.dcache.overallMshrMissRate::cpu.data     0.087817                       # mshr miss ratio for overall accesses (Ratio)
system.cpu.dcache.overallMshrMissRate::total     0.087817                       # mshr miss ratio for overall accesses (Ratio)
system.cpu.dcache.demandAvgMshrMissLatency::cpu.data 44358.045310                       # average overall mshr miss latency ((Tick/Count))
system.cpu.dcache.demandAvgMshrMissLatency::total 44358.045310                       # average overall mshr miss latency ((Tick/Count))
system.cpu.dcache.overallAvgMshrMissLatency::cpu.data 44358.045957                       # average overall mshr miss latency ((Tick/Count))
system.cpu.dcache.overallAvgMshrMissLatency::total 44358.045957                       # average overall mshr miss latency ((Tick/Count))
system.cpu.dcache.replacements               32414620                       # number of replacements (Count)
system.cpu.dcache.LoadLockedReq.hits::cpu.data      1263003                       # number of LoadLockedReq hits (Count)
system.cpu.dcache.LoadLockedReq.hits::total      1263003                       # number of LoadLockedReq hits (Count)
system.cpu.dcache.LoadLockedReq.misses::cpu.data            2                       # number of LoadLockedReq misses (Count)
system.cpu.dcache.LoadLockedReq.misses::total            2                       # number of LoadLockedReq misses (Count)
system.cpu.dcache.LoadLockedReq.missLatency::cpu.data       160950                       # number of LoadLockedReq miss ticks (Tick)
system.cpu.dcache.LoadLockedReq.missLatency::total       160950                       # number of LoadLockedReq miss ticks (Tick)
system.cpu.dcache.LoadLockedReq.accesses::cpu.data      1263005                       # number of LoadLockedReq accesses(hits+misses) (Count)
system.cpu.dcache.LoadLockedReq.accesses::total      1263005                       # number of LoadLockedReq accesses(hits+misses) (Count)
system.cpu.dcache.LoadLockedReq.missRate::cpu.data     0.000002                       # miss rate for LoadLockedReq accesses (Ratio)
system.cpu.dcache.LoadLockedReq.missRate::total     0.000002                       # miss rate for LoadLockedReq accesses (Ratio)
system.cpu.dcache.LoadLockedReq.avgMissLatency::cpu.data        80475                       # average LoadLockedReq miss latency ((Tick/Count))
system.cpu.dcache.LoadLockedReq.avgMissLatency::total        80475                       # average LoadLockedReq miss latency ((Tick/Count))
system.cpu.dcache.LoadLockedReq.mshrMisses::cpu.data            2                       # number of LoadLockedReq MSHR misses (Count)
system.cpu.dcache.LoadLockedReq.mshrMisses::total            2                       # number of LoadLockedReq MSHR misses (Count)
system.cpu.dcache.LoadLockedReq.mshrMissLatency::cpu.data       159180                       # number of LoadLockedReq MSHR miss ticks (Tick)
system.cpu.dcache.LoadLockedReq.mshrMissLatency::total       159180                       # number of LoadLockedReq MSHR miss ticks (Tick)
system.cpu.dcache.LoadLockedReq.mshrMissRate::cpu.data     0.000002                       # mshr miss rate for LoadLockedReq accesses (Ratio)
system.cpu.dcache.LoadLockedReq.mshrMissRate::total     0.000002                       # mshr miss rate for LoadLockedReq accesses (Ratio)
system.cpu.dcache.LoadLockedReq.avgMshrMissLatency::cpu.data        79590                       # average LoadLockedReq mshr miss latency ((Tick/Count))
system.cpu.dcache.LoadLockedReq.avgMshrMissLatency::total        79590                       # average LoadLockedReq mshr miss latency ((Tick/Count))
system.cpu.dcache.ReadReq.hits::cpu.data    220156545                       # number of ReadReq hits (Count)
system.cpu.dcache.ReadReq.hits::total       220156545                       # number of ReadReq hits (Count)
system.cpu.dcache.ReadReq.misses::cpu.data     38395438                       # number of ReadReq misses (Count)
system.cpu.dcache.ReadReq.misses::total      38395438                       # number of ReadReq misses (Count)
system.cpu.dcache.ReadReq.missLatency::cpu.data 1812225439750                       # number of ReadReq miss ticks (Tick)
system.cpu.dcache.ReadReq.missLatency::total 1812225439750                       # number of ReadReq miss ticks (Tick)
system.cpu.dcache.ReadReq.accesses::cpu.data    258551983                       # number of ReadReq accesses(hits+misses) (Count)
system.cpu.dcache.ReadReq.accesses::total    258551983                       # number of ReadReq accesses(hits+misses) (Count)
system.cpu.dcache.ReadReq.missRate::cpu.data     0.148502                       # miss rate for ReadReq accesses (Ratio)
system.cpu.dcache.ReadReq.missRate::total     0.148502                       # miss rate for ReadReq accesses (Ratio)
system.cpu.dcache.ReadReq.avgMissLatency::cpu.data 47198.978164                       # average ReadReq miss latency ((Tick/Count))
system.cpu.dcache.ReadReq.avgMissLatency::total 47198.978164                       # average ReadReq miss latency ((Tick/Count))
system.cpu.dcache.ReadReq.mshrHits::cpu.data      6768898                       # number of ReadReq MSHR hits (Count)
system.cpu.dcache.ReadReq.mshrHits::total      6768898                       # number of ReadReq MSHR hits (Count)
system.cpu.dcache.ReadReq.mshrMisses::cpu.data     31626540                       # number of ReadReq MSHR misses (Count)
system.cpu.dcache.ReadReq.mshrMisses::total     31626540                       # number of ReadReq MSHR misses (Count)
system.cpu.dcache.ReadReq.mshrMissLatency::cpu.data 1405672303910                       # number of ReadReq MSHR miss ticks (Tick)
system.cpu.dcache.ReadReq.mshrMissLatency::total 1405672303910                       # number of ReadReq MSHR miss ticks (Tick)
system.cpu.dcache.ReadReq.mshrMissRate::cpu.data     0.122322                       # mshr miss rate for ReadReq accesses (Ratio)
system.cpu.dcache.ReadReq.mshrMissRate::total     0.122322                       # mshr miss rate for ReadReq accesses (Ratio)
system.cpu.dcache.ReadReq.avgMshrMissLatency::cpu.data 44445.971766                       # average ReadReq mshr miss latency ((Tick/Count))
system.cpu.dcache.ReadReq.avgMshrMissLatency::total 44445.971766                       # average ReadReq mshr miss latency ((Tick/Count))
system.cpu.dcache.SoftPFReq.hits::cpu.data       210683                       # number of SoftPFReq hits (Count)
system.cpu.dcache.SoftPFReq.hits::total        210683                       # number of SoftPFReq hits (Count)
system.cpu.dcache.SoftPFReq.misses::cpu.data            1                       # number of SoftPFReq misses (Count)
system.cpu.dcache.SoftPFReq.misses::total            1                       # number of SoftPFReq misses (Count)
system.cpu.dcache.SoftPFReq.accesses::cpu.data       210684                       # number of SoftPFReq accesses(hits+misses) (Count)
system.cpu.dcache.SoftPFReq.accesses::total       210684                       # number of SoftPFReq accesses(hits+misses) (Count)
system.cpu.dcache.SoftPFReq.missRate::cpu.data     0.000005                       # miss rate for SoftPFReq accesses (Ratio)
system.cpu.dcache.SoftPFReq.missRate::total     0.000005                       # miss rate for SoftPFReq accesses (Ratio)
system.cpu.dcache.SoftPFReq.mshrMisses::cpu.data            1                       # number of SoftPFReq MSHR misses (Count)
system.cpu.dcache.SoftPFReq.mshrMisses::total            1                       # number of SoftPFReq MSHR misses (Count)
system.cpu.dcache.SoftPFReq.mshrMissLatency::cpu.data        65340                       # number of SoftPFReq MSHR miss ticks (Tick)
system.cpu.dcache.SoftPFReq.mshrMissLatency::total        65340                       # number of SoftPFReq MSHR miss ticks (Tick)
system.cpu.dcache.SoftPFReq.mshrMissRate::cpu.data     0.000005                       # mshr miss rate for SoftPFReq accesses (Ratio)
system.cpu.dcache.SoftPFReq.mshrMissRate::total     0.000005                       # mshr miss rate for SoftPFReq accesses (Ratio)
system.cpu.dcache.SoftPFReq.avgMshrMissLatency::cpu.data        65340                       # average SoftPFReq mshr miss latency ((Tick/Count))
system.cpu.dcache.SoftPFReq.avgMshrMissLatency::total        65340                       # average SoftPFReq mshr miss latency ((Tick/Count))
system.cpu.dcache.StoreCondReq.hits::cpu.data      1263005                       # number of StoreCondReq hits (Count)
system.cpu.dcache.StoreCondReq.hits::total      1263005                       # number of StoreCondReq hits (Count)
system.cpu.dcache.StoreCondReq.accesses::cpu.data      1263005                       # number of StoreCondReq accesses(hits+misses) (Count)
system.cpu.dcache.StoreCondReq.accesses::total      1263005                       # number of StoreCondReq accesses(hits+misses) (Count)
system.cpu.dcache.WriteReq.hits::cpu.data    109093128                       # number of WriteReq hits (Count)
system.cpu.dcache.WriteReq.hits::total      109093128                       # number of WriteReq hits (Count)
system.cpu.dcache.WriteReq.misses::cpu.data      1265743                       # number of WriteReq misses (Count)
system.cpu.dcache.WriteReq.misses::total      1265743                       # number of WriteReq misses (Count)
system.cpu.dcache.WriteReq.missLatency::cpu.data  48722768980                       # number of WriteReq miss ticks (Tick)
system.cpu.dcache.WriteReq.missLatency::total  48722768980                       # number of WriteReq miss ticks (Tick)
system.cpu.dcache.WriteReq.accesses::cpu.data    110358871                       # number of WriteReq accesses(hits+misses) (Count)
system.cpu.dcache.WriteReq.accesses::total    110358871                       # number of WriteReq accesses(hits+misses) (Count)
system.cpu.dcache.WriteReq.missRate::cpu.data     0.011469                       # miss rate for WriteReq accesses (Ratio)
system.cpu.dcache.WriteReq.missRate::total     0.011469                       # miss rate for WriteReq accesses (Ratio)
system.cpu.dcache.WriteReq.avgMissLatency::cpu.data 38493.413734                       # average WriteReq miss latency ((Tick/Count))
system.cpu.dcache.WriteReq.avgMissLatency::total 38493.413734                       # average WriteReq miss latency ((Tick/Count))
system.cpu.dcache.WriteReq.mshrHits::cpu.data       477154                       # number of WriteReq MSHR hits (Count)
system.cpu.dcache.WriteReq.mshrHits::total       477154                       # number of WriteReq MSHR hits (Count)
system.cpu.dcache.WriteReq.mshrMisses::cpu.data       788589                       # number of WriteReq MSHR misses (Count)
system.cpu.dcache.WriteReq.mshrMisses::total       788589                       # number of WriteReq MSHR misses (Count)
system.cpu.dcache.WriteReq.mshrMissLatency::cpu.data  32199457000                       # number of WriteReq MSHR miss ticks (Tick)
system.cpu.dcache.WriteReq.mshrMissLatency::total  32199457000                       # number of WriteReq MSHR miss ticks (Tick)
system.cpu.dcache.WriteReq.mshrMissRate::cpu.data     0.007146                       # mshr miss rate for WriteReq accesses (Ratio)
system.cpu.dcache.WriteReq.mshrMissRate::total     0.007146                       # mshr miss rate for WriteReq accesses (Ratio)
system.cpu.dcache.WriteReq.avgMshrMissLatency::cpu.data 40831.734909                       # average WriteReq mshr miss latency ((Tick/Count))
system.cpu.dcache.WriteReq.avgMshrMissLatency::total 40831.734909                       # average WriteReq mshr miss latency ((Tick/Count))
system.cpu.dcache.power_state.pwrStateResidencyTicks::UNDEFINED 1788568501880                       # Cumulative time (in ticks) in various power states (Tick)
system.cpu.dcache.tags.tagsInUse           511.976478                       # Average ticks per tags in use ((Tick/Count))
system.cpu.dcache.tags.totalRefs            364401496                       # Total number of references to valid blocks. (Count)
system.cpu.dcache.tags.sampledRefs           32415132                       # Sample count of references to valid blocks. (Count)
system.cpu.dcache.tags.avgRefs              11.241709                       # Average number of references to valid blocks. ((Count/Count))
system.cpu.dcache.tags.warmupTick              164000                       # The tick when the warmup percentage was hit. (Tick)
system.cpu.dcache.tags.occupancies::cpu.data   511.976478                       # Average occupied blocks per tick, per requestor ((Count/Tick))
system.cpu.dcache.tags.avgOccs::cpu.data     0.999954                       # Average percentage of cache occupancy ((Ratio/Tick))
system.cpu.dcache.tags.avgOccs::total        0.999954                       # Average percentage of cache occupancy ((Ratio/Tick))
system.cpu.dcache.tags.occupanciesTaskId::1024          512                       # Occupied blocks per task id (Count)
system.cpu.dcache.tags.ageTaskId_1024::0          141                       # Occupied blocks per task id, per block age (Count)
system.cpu.dcache.tags.ageTaskId_1024::1          370                       # Occupied blocks per task id, per block age (Count)
system.cpu.dcache.tags.ageTaskId_1024::3            1                       # Occupied blocks per task id, per block age (Count)
system.cpu.dcache.tags.ratioOccsTaskId::1024            1                       # Ratio of occupied blocks and all blocks, per task id (Ratio)
system.cpu.dcache.tags.tagAccesses         1519005324                       # Number of tag accesses (Count)
system.cpu.dcache.tags.dataAccesses        1519005324                       # Number of data accesses (Count)
system.cpu.dcache.tags.power_state.pwrStateResidencyTicks::UNDEFINED 1788568501880                       # Cumulative time (in ticks) in various power states (Tick)
system.cpu.fetch2.intInstructions           496857907                       # Number of integer instructions successfully decoded (Count)
system.cpu.fetch2.fpInstructions                    0                       # Number of floating point instructions successfully decoded (Count)
system.cpu.fetch2.vecInstructions                   0                       # Number of SIMD instructions successfully decoded (Count)
system.cpu.fetch2.loadInstructions          243283152                       # Number of memory load instructions successfully decoded (Count)
system.cpu.fetch2.storeInstructions          84140402                       # Number of memory store instructions successfully decoded (Count)
system.cpu.fetch2.amoInstructions                   0                       # Number of memory atomic instructions successfully decoded (Count)
system.cpu.icache.demandHits::cpu.inst      341773701                       # number of demand (read+write) hits (Count)
system.cpu.icache.demandHits::total         341773701                       # number of demand (read+write) hits (Count)
system.cpu.icache.overallHits::cpu.inst     341773701                       # number of overall hits (Count)
system.cpu.icache.overallHits::total        341773701                       # number of overall hits (Count)
system.cpu.icache.demandMisses::cpu.inst      1053091                       # number of demand (read+write) misses (Count)
system.cpu.icache.demandMisses::total         1053091                       # number of demand (read+write) misses (Count)
system.cpu.icache.overallMisses::cpu.inst      1053091                       # number of overall misses (Count)
system.cpu.icache.overallMisses::total        1053091                       # number of overall misses (Count)
system.cpu.icache.demandMissLatency::cpu.inst  14161149860                       # number of demand (read+write) miss ticks (Tick)
system.cpu.icache.demandMissLatency::total  14161149860                       # number of demand (read+write) miss ticks (Tick)
system.cpu.icache.overallMissLatency::cpu.inst  14161149860                       # number of overall miss ticks (Tick)
system.cpu.icache.overallMissLatency::total  14161149860                       # number of overall miss ticks (Tick)
system.cpu.icache.demandAccesses::cpu.inst    342826792                       # number of demand (read+write) accesses (Count)
system.cpu.icache.demandAccesses::total     342826792                       # number of demand (read+write) accesses (Count)
system.cpu.icache.overallAccesses::cpu.inst    342826792                       # number of overall (read+write) accesses (Count)
system.cpu.icache.overallAccesses::total    342826792                       # number of overall (read+write) accesses (Count)
system.cpu.icache.demandMissRate::cpu.inst     0.003072                       # miss rate for demand accesses (Ratio)
system.cpu.icache.demandMissRate::total      0.003072                       # miss rate for demand accesses (Ratio)
system.cpu.icache.overallMissRate::cpu.inst     0.003072                       # miss rate for overall accesses (Ratio)
system.cpu.icache.overallMissRate::total     0.003072                       # miss rate for overall accesses (Ratio)
system.cpu.icache.demandAvgMissLatency::cpu.inst 13447.223326                       # average overall miss latency in ticks ((Tick/Count))
system.cpu.icache.demandAvgMissLatency::total 13447.223326                       # average overall miss latency in ticks ((Tick/Count))
system.cpu.icache.overallAvgMissLatency::cpu.inst 13447.223326                       # average overall miss latency ((Tick/Count))
system.cpu.icache.overallAvgMissLatency::total 13447.223326                       # average overall miss latency ((Tick/Count))
system.cpu.icache.blockedCycles::no_mshrs            0                       # number of cycles access was blocked (Cycle)
system.cpu.icache.blockedCycles::no_targets            0                       # number of cycles access was blocked (Cycle)
system.cpu.icache.blockedCauses::no_mshrs            0                       # number of times access was blocked (Count)
system.cpu.icache.blockedCauses::no_targets            0                       # number of times access was blocked (Count)
system.cpu.icache.avgBlocked::no_mshrs            nan                       # average number of cycles each access was blocked ((Cycle/Count))
system.cpu.icache.avgBlocked::no_targets          nan                       # average number of cycles each access was blocked ((Cycle/Count))
system.cpu.icache.demandMshrMisses::cpu.inst      1053091                       # number of demand (read+write) MSHR misses (Count)
system.cpu.icache.demandMshrMisses::total      1053091                       # number of demand (read+write) MSHR misses (Count)
system.cpu.icache.overallMshrMisses::cpu.inst      1053091                       # number of overall MSHR misses (Count)
system.cpu.icache.overallMshrMisses::total      1053091                       # number of overall MSHR misses (Count)
system.cpu.icache.demandMshrMissLatency::cpu.inst  13174713630                       # number of demand (read+write) MSHR miss ticks (Tick)
system.cpu.icache.demandMshrMissLatency::total  13174713630                       # number of demand (read+write) MSHR miss ticks (Tick)
system.cpu.icache.overallMshrMissLatency::cpu.inst  13174713630                       # number of overall MSHR miss ticks (Tick)
system.cpu.icache.overallMshrMissLatency::total  13174713630                       # number of overall MSHR miss ticks (Tick)
system.cpu.icache.demandMshrMissRate::cpu.inst     0.003072                       # mshr miss ratio for demand accesses (Ratio)
system.cpu.icache.demandMshrMissRate::total     0.003072                       # mshr miss ratio for demand accesses (Ratio)
system.cpu.icache.overallMshrMissRate::cpu.inst     0.003072                       # mshr miss ratio for overall accesses (Ratio)
system.cpu.icache.overallMshrMissRate::total     0.003072                       # mshr miss ratio for overall accesses (Ratio)
system.cpu.icache.demandAvgMshrMissLatency::cpu.inst 12510.517733                       # average overall mshr miss latency ((Tick/Count))
system.cpu.icache.demandAvgMshrMissLatency::total 12510.517733                       # average overall mshr miss latency ((Tick/Count))
system.cpu.icache.overallAvgMshrMissLatency::cpu.inst 12510.517733                       # average overall mshr miss latency ((Tick/Count))
system.cpu.icache.overallAvgMshrMissLatency::total 12510.517733                       # average overall mshr miss latency ((Tick/Count))
system.cpu.icache.replacements                1052630                       # number of replacements (Count)
system.cpu.icache.ReadReq.hits::cpu.inst    341773701                       # number of ReadReq hits (Count)
system.cpu.icache.ReadReq.hits::total       341773701                       # number of ReadReq hits (Count)
system.cpu.icache.ReadReq.misses::cpu.inst      1053091                       # number of ReadReq misses (Count)
system.cpu.icache.ReadReq.misses::total       1053091                       # number of ReadReq misses (Count)
system.cpu.icache.ReadReq.missLatency::cpu.inst  14161149860                       # number of ReadReq miss ticks (Tick)
system.cpu.icache.ReadReq.missLatency::total  14161149860                       # number of ReadReq miss ticks (Tick)
system.cpu.icache.ReadReq.accesses::cpu.inst    342826792                       # number of ReadReq accesses(hits+misses) (Count)
system.cpu.icache.ReadReq.accesses::total    342826792                       # number of ReadReq accesses(hits+misses) (Count)
system.cpu.icache.ReadReq.missRate::cpu.inst     0.003072                       # miss rate for ReadReq accesses (Ratio)
system.cpu.icache.ReadReq.missRate::total     0.003072                       # miss rate for ReadReq accesses (Ratio)
system.cpu.icache.ReadReq.avgMissLatency::cpu.inst 13447.223326                       # average ReadReq miss latency ((Tick/Count))
system.cpu.icache.ReadReq.avgMissLatency::total 13447.223326                       # average ReadReq miss latency ((Tick/Count))
system.cpu.icache.ReadReq.mshrMisses::cpu.inst      1053091                       # number of ReadReq MSHR misses (Count)
system.cpu.icache.ReadReq.mshrMisses::total      1053091                       # number of ReadReq MSHR misses (Count)
system.cpu.icache.ReadReq.mshrMissLatency::cpu.inst  13174713630                       # number of ReadReq MSHR miss ticks (Tick)
system.cpu.icache.ReadReq.mshrMissLatency::total  13174713630                       # number of ReadReq MSHR miss ticks (Tick)
system.cpu.icache.ReadReq.mshrMissRate::cpu.inst     0.003072                       # mshr miss rate for ReadReq accesses (Ratio)
system.cpu.icache.ReadReq.mshrMissRate::total     0.003072                       # mshr miss rate for ReadReq accesses (Ratio)
system.cpu.icache.ReadReq.avgMshrMissLatency::cpu.inst 12510.517733                       # average ReadReq mshr miss latency ((Tick/Count))
system.cpu.icache.ReadReq.avgMshrMissLatency::total 12510.517733                       # average ReadReq mshr miss latency ((Tick/Count))
system.cpu.icache.power_state.pwrStateResidencyTicks::UNDEFINED 1788568501880                       # Cumulative time (in ticks) in various power states (Tick)
system.cpu.icache.tags.tagsInUse           452.830393                       # Average ticks per tags in use ((Tick/Count))
system.cpu.icache.tags.totalRefs            342826792                       # Total number of references to valid blocks. (Count)
system.cpu.icache.tags.sampledRefs            1053091                       # Sample count of references to valid blocks. (Count)
system.cpu.icache.tags.avgRefs             325.543369                       # Average number of references to valid blocks. ((Count/Count))
system.cpu.icache.tags.warmupTick               81500                       # The tick when the warmup percentage was hit. (Tick)
system.cpu.icache.tags.occupancies::cpu.inst   452.830393                       # Average occupied blocks per tick, per requestor ((Count/Tick))
system.cpu.icache.tags.avgOccs::cpu.inst     0.884434                       # Average percentage of cache occupancy ((Ratio/Tick))
system.cpu.icache.tags.avgOccs::total        0.884434                       # Average percentage of cache occupancy ((Ratio/Tick))
system.cpu.icache.tags.occupanciesTaskId::1024          461                       # Occupied blocks per task id (Count)
system.cpu.icache.tags.ageTaskId_1024::4          461                       # Occupied blocks per task id, per block age (Count)
system.cpu.icache.tags.ratioOccsTaskId::1024     0.900391                       # Ratio of occupied blocks and all blocks, per task id (Ratio)
system.cpu.icache.tags.tagAccesses         1372360259                       # Number of tag accesses (Count)
system.cpu.icache.tags.dataAccesses        1372360259                       # Number of data accesses (Count)
system.cpu.icache.tags.power_state.pwrStateResidencyTicks::UNDEFINED 1788568501880                       # Cumulative time (in ticks) in various power states (Tick)
system.cpu.mmu.alignFaults                          0                       # Number of MMU faults due to alignment restrictions (Count)
system.cpu.mmu.prefetchFaults                       0                       # Number of MMU faults due to prefetch (Count)
system.cpu.mmu.domainFaults                         0                       # Number of MMU faults due to domain restrictions (Count)
system.cpu.mmu.permsFaults                          0                       # Number of MMU faults due to permissions restrictions (Count)
system.cpu.mmu.dtb.readHits                         0                       # Read hits (Count)
system.cpu.mmu.dtb.readMisses                       0                       # Read misses (Count)
system.cpu.mmu.dtb.writeHits                        0                       # Write hits (Count)
system.cpu.mmu.dtb.writeMisses                      0                       # Write misses (Count)
system.cpu.mmu.dtb.inserts                          0                       # Number of times an entry is inserted into the TLB (Count)
system.cpu.mmu.dtb.flushTlb                         1                       # Number of times complete TLB was flushed (Count)
system.cpu.mmu.dtb.flushTlbMva                      0                       # Number of times TLB was flushed by MVA (Count)
system.cpu.mmu.dtb.flushTlbMvaAsid                  0                       # Number of times TLB was flushed by MVA & ASID (Count)
system.cpu.mmu.dtb.flushTlbAsid                     0                       # Number of times TLB was flushed by ASID (Count)
system.cpu.mmu.dtb.flushedEntries                   0                       # Number of entries that have been flushed from TLB (Count)
system.cpu.mmu.dtb.readAccesses                     0                       # Read accesses (Count)
system.cpu.mmu.dtb.writeAccesses                    0                       # Write accesses (Count)
system.cpu.mmu.dtb.hits                             0                       # Total TLB (inst and data) hits (Count)
system.cpu.mmu.dtb.misses                           0                       # Total TLB (inst and data) misses (Count)
system.cpu.mmu.dtb.accesses                         0                       # Total TLB (inst and data) accesses (Count)
system.cpu.mmu.dtb_walker.walks                     0                       # Table walker walks requested (Count)
system.cpu.mmu.dtb_walker.requestOrigin_Requested::Data            0                       # Table walker requests started/completed, data/inst (Count)
system.cpu.mmu.dtb_walker.requestOrigin_Requested::Inst            0                       # Table walker requests started/completed, data/inst (Count)
system.cpu.mmu.dtb_walker.requestOrigin_Requested::total            0                       # Table walker requests started/completed, data/inst (Count)
system.cpu.mmu.dtb_walker.requestOrigin_Completed::Data            0                       # Table walker requests started/completed, data/inst (Count)
system.cpu.mmu.dtb_walker.requestOrigin_Completed::Inst            0                       # Table walker requests started/completed, data/inst (Count)
system.cpu.mmu.dtb_walker.requestOrigin_Completed::total            0                       # Table walker requests started/completed, data/inst (Count)
system.cpu.mmu.dtb_walker.requestOrigin::total            0                       # Table walker requests started/completed, data/inst (Count)
system.cpu.mmu.dtb_walker.power_state.pwrStateResidencyTicks::UNDEFINED 1788568501880                       # Cumulative time (in ticks) in various power states (Tick)
system.cpu.mmu.itb.instHits                         0                       # Inst hits (Count)
system.cpu.mmu.itb.instMisses                       0                       # Inst misses (Count)
system.cpu.mmu.itb.inserts                          0                       # Number of times an entry is inserted into the TLB (Count)
system.cpu.mmu.itb.flushTlb                         1                       # Number of times complete TLB was flushed (Count)
system.cpu.mmu.itb.flushTlbMva                      0                       # Number of times TLB was flushed by MVA (Count)
system.cpu.mmu.itb.flushTlbMvaAsid                  0                       # Number of times TLB was flushed by MVA & ASID (Count)
system.cpu.mmu.itb.flushTlbAsid                     0                       # Number of times TLB was flushed by ASID (Count)
system.cpu.mmu.itb.flushedEntries                   0                       # Number of entries that have been flushed from TLB (Count)
system.cpu.mmu.itb.instAccesses                     0                       # Inst accesses (Count)
system.cpu.mmu.itb.hits                             0                       # Total TLB (inst and data) hits (Count)
system.cpu.mmu.itb.misses                           0                       # Total TLB (inst and data) misses (Count)
system.cpu.mmu.itb.accesses                         0                       # Total TLB (inst and data) accesses (Count)
system.cpu.mmu.itb_walker.walks                     0                       # Table walker walks requested (Count)
system.cpu.mmu.itb_walker.requestOrigin_Requested::Data            0                       # Table walker requests started/completed, data/inst (Count)
system.cpu.mmu.itb_walker.requestOrigin_Requested::Inst            0                       # Table walker requests started/completed, data/inst (Count)
system.cpu.mmu.itb_walker.requestOrigin_Requested::total            0                       # Table walker requests started/completed, data/inst (Count)
system.cpu.mmu.itb_walker.requestOrigin_Completed::Data            0                       # Table walker requests started/completed, data/inst (Count)
system.cpu.mmu.itb_walker.requestOrigin_Completed::Inst            0                       # Table walker requests started/completed, data/inst (Count)
system.cpu.mmu.itb_walker.requestOrigin_Completed::total            0                       # Table walker requests started/completed, data/inst (Count)
system.cpu.mmu.itb_walker.requestOrigin::total            0                       # Table walker requests started/completed, data/inst (Count)
system.cpu.mmu.itb_walker.power_state.pwrStateResidencyTicks::UNDEFINED 1788568501880                       # Cumulative time (in ticks) in various power states (Tick)
system.cpu.mmu.l2_shared.instHits                   0                       # Inst hits (Count)
system.cpu.mmu.l2_shared.instMisses                 0                       # Inst misses (Count)
system.cpu.mmu.l2_shared.inserts                    0                       # Number of times an entry is inserted into the TLB (Count)
system.cpu.mmu.l2_shared.flushTlb                   1                       # Number of times complete TLB was flushed (Count)
system.cpu.mmu.l2_shared.flushTlbMva                0                       # Number of times TLB was flushed by MVA (Count)
system.cpu.mmu.l2_shared.flushTlbMvaAsid            0                       # Number of times TLB was flushed by MVA & ASID (Count)
system.cpu.mmu.l2_shared.flushTlbAsid               0                       # Number of times TLB was flushed by ASID (Count)
system.cpu.mmu.l2_shared.flushedEntries             0                       # Number of entries that have been flushed from TLB (Count)
system.cpu.mmu.l2_shared.instAccesses               0                       # Inst accesses (Count)
system.cpu.mmu.l2_shared.hits                       0                       # Total TLB (inst and data) hits (Count)
system.cpu.mmu.l2_shared.misses                     0                       # Total TLB (inst and data) misses (Count)
system.cpu.mmu.l2_shared.accesses                   0                       # Total TLB (inst and data) accesses (Count)
system.cpu.mmu.stage2_dtb.readHits                  0                       # Read hits (Count)
system.cpu.mmu.stage2_dtb.readMisses                0                       # Read misses (Count)
system.cpu.mmu.stage2_dtb.writeHits                 0                       # Write hits (Count)
system.cpu.mmu.stage2_dtb.writeMisses               0                       # Write misses (Count)
system.cpu.mmu.stage2_dtb.inserts                   0                       # Number of times an entry is inserted into the TLB (Count)
system.cpu.mmu.stage2_dtb.flushTlb                  1                       # Number of times complete TLB was flushed (Count)
system.cpu.mmu.stage2_dtb.flushTlbMva               0                       # Number of times TLB was flushed by MVA (Count)
system.cpu.mmu.stage2_dtb.flushTlbMvaAsid            0                       # Number of times TLB was flushed by MVA & ASID (Count)
system.cpu.mmu.stage2_dtb.flushTlbAsid              0                       # Number of times TLB was flushed by ASID (Count)
system.cpu.mmu.stage2_dtb.flushedEntries            0                       # Number of entries that have been flushed from TLB (Count)
system.cpu.mmu.stage2_dtb.readAccesses              0                       # Read accesses (Count)
system.cpu.mmu.stage2_dtb.writeAccesses             0                       # Write accesses (Count)
system.cpu.mmu.stage2_dtb.hits                      0                       # Total TLB (inst and data) hits (Count)
system.cpu.mmu.stage2_dtb.misses                    0                       # Total TLB (inst and data) misses (Count)
system.cpu.mmu.stage2_dtb.accesses                  0                       # Total TLB (inst and data) accesses (Count)
system.cpu.mmu.stage2_dtb_walker.walks              0                       # Table walker walks requested (Count)
system.cpu.mmu.stage2_dtb_walker.requestOrigin_Requested::Data            0                       # Table walker requests started/completed, data/inst (Count)
system.cpu.mmu.stage2_dtb_walker.requestOrigin_Requested::Inst            0                       # Table walker requests started/completed, data/inst (Count)
system.cpu.mmu.stage2_dtb_walker.requestOrigin_Requested::total            0                       # Table walker requests started/completed, data/inst (Count)
system.cpu.mmu.stage2_dtb_walker.requestOrigin_Completed::Data            0                       # Table walker requests started/completed, data/inst (Count)
system.cpu.mmu.stage2_dtb_walker.requestOrigin_Completed::Inst            0                       # Table walker requests started/completed, data/inst (Count)
system.cpu.mmu.stage2_dtb_walker.requestOrigin_Completed::total            0                       # Table walker requests started/completed, data/inst (Count)
system.cpu.mmu.stage2_dtb_walker.requestOrigin::total            0                       # Table walker requests started/completed, data/inst (Count)
system.cpu.mmu.stage2_dtb_walker.power_state.pwrStateResidencyTicks::UNDEFINED 1788568501880                       # Cumulative time (in ticks) in various power states (Tick)
system.cpu.mmu.stage2_itb.instHits                  0                       # Inst hits (Count)
system.cpu.mmu.stage2_itb.instMisses                0                       # Inst misses (Count)
system.cpu.mmu.stage2_itb.inserts                   0                       # Number of times an entry is inserted into the TLB (Count)
system.cpu.mmu.stage2_itb.flushTlb                  1                       # Number of times complete TLB was flushed (Count)
system.cpu.mmu.stage2_itb.flushTlbMva               0                       # Number of times TLB was flushed by MVA (Count)
system.cpu.mmu.stage2_itb.flushTlbMvaAsid            0                       # Number of times TLB was flushed by MVA & ASID (Count)
system.cpu.mmu.stage2_itb.flushTlbAsid              0                       # Number of times TLB was flushed by ASID (Count)
system.cpu.mmu.stage2_itb.flushedEntries            0                       # Number of entries that have been flushed from TLB (Count)
system.cpu.mmu.stage2_itb.instAccesses              0                       # Inst accesses (Count)
system.cpu.mmu.stage2_itb.hits                      0                       # Total TLB (inst and data) hits (Count)
system.cpu.mmu.stage2_itb.misses                    0                       # Total TLB (inst and data) misses (Count)
system.cpu.mmu.stage2_itb.accesses                  0                       # Total TLB (inst and data) accesses (Count)
system.cpu.mmu.stage2_itb_walker.walks              0                       # Table walker walks requested (Count)
system.cpu.mmu.stage2_itb_walker.requestOrigin_Requested::Data            0                       # Table walker requests started/completed, data/inst (Count)
system.cpu.mmu.stage2_itb_walker.requestOrigin_Requested::Inst            0                       # Table walker requests started/completed, data/inst (Count)
system.cpu.mmu.stage2_itb_walker.requestOrigin_Requested::total            0                       # Table walker requests started/completed, data/inst (Count)
system.cpu.mmu.stage2_itb_walker.requestOrigin_Completed::Data            0                       # Table walker requests started/completed, data/inst (Count)
system.cpu.mmu.stage2_itb_walker.requestOrigin_Completed::Inst            0                       # Table walker requests started/completed, data/inst (Count)
system.cpu.mmu.stage2_itb_walker.requestOrigin_Completed::total            0                       # Table walker requests started/completed, data/inst (Count)
system.cpu.mmu.stage2_itb_walker.requestOrigin::total            0                       # Table walker requests started/completed, data/inst (Count)
system.cpu.mmu.stage2_itb_walker.power_state.pwrStateResidencyTicks::UNDEFINED 1788568501880                       # Cumulative time (in ticks) in various power states (Tick)
system.cpu.power_state.pwrStateResidencyTicks::ON 1788568501880                       # Cumulative time (in ticks) in various power states (Tick)
system.cpu.thread_0.numInsts               1000000001                       # Number of Instructions committed (Count)
system.cpu.thread_0.numOps                 1084388564                       # Number of Ops committed (Count)
system.cpu.thread_0.numMemRefs                      0                       # Number of Memory References (Count)
system.cpu.workload.numSyscalls                   423                       # Number of system calls (Count)
system.cpu_clk_domain.clock                       370                       # Clock period in ticks (Tick)
system.cpu_clk_domain.voltage_domain.voltage            1                       # Voltage in Volts (Volt)
system.l2bus.transDist::ReadResp             32679634                       # Transaction distribution (Count)
system.l2bus.transDist::WritebackDirty       15597503                       # Transaction distribution (Count)
system.l2bus.transDist::CleanEvict           32724456                       # Transaction distribution (Count)
system.l2bus.transDist::ReadExReq              788589                       # Transaction distribution (Count)
system.l2bus.transDist::ReadExResp             788589                       # Transaction distribution (Count)
system.l2bus.transDist::ReadSharedReq        32679634                       # Transaction distribution (Count)
system.l2bus.pktCount_system.cpu.icache.mem_side_port::system.l2cache.cpu_side_port      3158812                       # Packet count per connected requestor and responder (Count)
system.l2bus.pktCount_system.cpu.dcache.mem_side_port::system.l2cache.cpu_side_port     97244884                       # Packet count per connected requestor and responder (Count)
system.l2bus.pktCount::total                100403696                       # Packet count per connected requestor and responder (Count)
system.l2bus.pktSize_system.cpu.icache.mem_side_port::system.l2cache.cpu_side_port     67397824                       # Cumulative packet size per connected requestor and responder (Byte)
system.l2bus.pktSize_system.cpu.dcache.mem_side_port::system.l2cache.cpu_side_port   2712628736                       # Cumulative packet size per connected requestor and responder (Byte)
system.l2bus.pktSize::total                2780026560                       # Cumulative packet size per connected requestor and responder (Byte)
system.l2bus.snoops                          14854709                       # Total snoops (Count)
system.l2bus.snoopTraffic                   360179904                       # Total snoop traffic (Byte)
system.l2bus.snoopFanout::samples            48322932                       # Request fanout histogram (Count)
system.l2bus.snoopFanout::mean               0.000947                       # Request fanout histogram (Count)
system.l2bus.snoopFanout::stdev              0.030775                       # Request fanout histogram (Count)
system.l2bus.snoopFanout::underflows                0      0.00%      0.00% # Request fanout histogram (Count)
system.l2bus.snoopFanout::0                  48277160     99.91%     99.91% # Request fanout histogram (Count)
system.l2bus.snoopFanout::1                     45759      0.09%    100.00% # Request fanout histogram (Count)
system.l2bus.snoopFanout::2                        13      0.00%    100.00% # Request fanout histogram (Count)
system.l2bus.snoopFanout::overflows                 0      0.00%    100.00% # Request fanout histogram (Count)
system.l2bus.snoopFanout::min_value                 0                       # Request fanout histogram (Count)
system.l2bus.snoopFanout::max_value                 2                       # Request fanout histogram (Count)
system.l2bus.snoopFanout::total              48322932                       # Request fanout histogram (Count)
system.l2bus.power_state.pwrStateResidencyTicks::UNDEFINED 1788568501880                       # Cumulative time (in ticks) in various power states (Tick)
system.l2bus.reqLayer0.occupancy          58257446860                       # Layer occupancy (ticks) (Tick)
system.l2bus.reqLayer0.utilization                0.0                       # Layer utilization (Ratio)
system.l2bus.respLayer0.occupancy          1579636500                       # Layer occupancy (ticks) (Tick)
system.l2bus.respLayer0.utilization               0.0                       # Layer utilization (Ratio)
system.l2bus.respLayer1.occupancy         48622702990                       # Layer occupancy (ticks) (Tick)
system.l2bus.respLayer1.utilization               0.0                       # Layer utilization (Ratio)
system.l2bus.snoop_filter.totRequests        66935473                       # Total number of requests made to the snoop filter. (Count)
system.l2bus.snoop_filter.hitSingleRequests     33467250                       # Number of requests hitting in the snoop filter with a single holder of the requested data. (Count)
system.l2bus.snoop_filter.hitMultiRequests        44841                       # Number of requests hitting in the snoop filter with multiple (>1) holders of the requested data. (Count)
system.l2bus.snoop_filter.totSnoops               931                       # Total number of snoops made to the snoop filter. (Count)
system.l2bus.snoop_filter.hitSingleSnoops          918                       # Number of snoops hitting in the snoop filter with a single holder of the requested data. (Count)
system.l2bus.snoop_filter.hitMultiSnoops           13                       # Number of snoops hitting in the snoop filter with multiple (>1) holders of the requested data. (Count)
system.l2cache.demandHits::cpu.inst           1052508                       # number of demand (read+write) hits (Count)
system.l2cache.demandHits::cpu.data          17528355                       # number of demand (read+write) hits (Count)
system.l2cache.demandHits::total             18580863                       # number of demand (read+write) hits (Count)
system.l2cache.overallHits::cpu.inst          1052508                       # number of overall hits (Count)
system.l2cache.overallHits::cpu.data         17528355                       # number of overall hits (Count)
system.l2cache.overallHits::total            18580863                       # number of overall hits (Count)
system.l2cache.demandMisses::cpu.inst             583                       # number of demand (read+write) misses (Count)
system.l2cache.demandMisses::cpu.data        14886777                       # number of demand (read+write) misses (Count)
system.l2cache.demandMisses::total           14887360                       # number of demand (read+write) misses (Count)
system.l2cache.overallMisses::cpu.inst            583                       # number of overall misses (Count)
system.l2cache.overallMisses::cpu.data       14886777                       # number of overall misses (Count)
system.l2cache.overallMisses::total          14887360                       # number of overall misses (Count)
system.l2cache.demandMissLatency::cpu.inst     41639860                       # number of demand (read+write) miss ticks (Tick)
system.l2cache.demandMissLatency::cpu.data 1197532005310                       # number of demand (read+write) miss ticks (Tick)
system.l2cache.demandMissLatency::total  1197573645170                       # number of demand (read+write) miss ticks (Tick)
system.l2cache.overallMissLatency::cpu.inst     41639860                       # number of overall miss ticks (Tick)
system.l2cache.overallMissLatency::cpu.data 1197532005310                       # number of overall miss ticks (Tick)
system.l2cache.overallMissLatency::total 1197573645170                       # number of overall miss ticks (Tick)
system.l2cache.demandAccesses::cpu.inst       1053091                       # number of demand (read+write) accesses (Count)
system.l2cache.demandAccesses::cpu.data      32415132                       # number of demand (read+write) accesses (Count)
system.l2cache.demandAccesses::total         33468223                       # number of demand (read+write) accesses (Count)
system.l2cache.overallAccesses::cpu.inst      1053091                       # number of overall (read+write) accesses (Count)
system.l2cache.overallAccesses::cpu.data     32415132                       # number of overall (read+write) accesses (Count)
system.l2cache.overallAccesses::total        33468223                       # number of overall (read+write) accesses (Count)
system.l2cache.demandMissRate::cpu.inst      0.000554                       # miss rate for demand accesses (Ratio)
system.l2cache.demandMissRate::cpu.data      0.459254                       # miss rate for demand accesses (Ratio)
system.l2cache.demandMissRate::total         0.444821                       # miss rate for demand accesses (Ratio)
system.l2cache.overallMissRate::cpu.inst     0.000554                       # miss rate for overall accesses (Ratio)
system.l2cache.overallMissRate::cpu.data     0.459254                       # miss rate for overall accesses (Ratio)
system.l2cache.overallMissRate::total        0.444821                       # miss rate for overall accesses (Ratio)
system.l2cache.demandAvgMissLatency::cpu.inst 71423.430532                       # average overall miss latency in ticks ((Tick/Count))
system.l2cache.demandAvgMissLatency::cpu.data 80442.664340                       # average overall miss latency in ticks ((Tick/Count))
system.l2cache.demandAvgMissLatency::total 80442.311140                       # average overall miss latency in ticks ((Tick/Count))
system.l2cache.overallAvgMissLatency::cpu.inst 71423.430532                       # average overall miss latency ((Tick/Count))
system.l2cache.overallAvgMissLatency::cpu.data 80442.664340                       # average overall miss latency ((Tick/Count))
system.l2cache.overallAvgMissLatency::total 80442.311140                       # average overall miss latency ((Tick/Count))
system.l2cache.blockedCycles::no_mshrs              0                       # number of cycles access was blocked (Cycle)
system.l2cache.blockedCycles::no_targets            0                       # number of cycles access was blocked (Cycle)
system.l2cache.blockedCauses::no_mshrs              0                       # number of times access was blocked (Count)
system.l2cache.blockedCauses::no_targets            0                       # number of times access was blocked (Count)
system.l2cache.avgBlocked::no_mshrs               nan                       # average number of cycles each access was blocked ((Cycle/Count))
system.l2cache.avgBlocked::no_targets             nan                       # average number of cycles each access was blocked ((Cycle/Count))
system.l2cache.writebacks::writebacks         5627811                       # number of writebacks (Count)
system.l2cache.writebacks::total              5627811                       # number of writebacks (Count)
system.l2cache.demandMshrHits::cpu.data            10                       # number of demand (read+write) MSHR hits (Count)
system.l2cache.demandMshrHits::total               10                       # number of demand (read+write) MSHR hits (Count)
system.l2cache.overallMshrHits::cpu.data           10                       # number of overall MSHR hits (Count)
system.l2cache.overallMshrHits::total              10                       # number of overall MSHR hits (Count)
system.l2cache.demandMshrMisses::cpu.inst          583                       # number of demand (read+write) MSHR misses (Count)
system.l2cache.demandMshrMisses::cpu.data     14886767                       # number of demand (read+write) MSHR misses (Count)
system.l2cache.demandMshrMisses::total       14887350                       # number of demand (read+write) MSHR misses (Count)
system.l2cache.overallMshrMisses::cpu.inst          583                       # number of overall MSHR misses (Count)
system.l2cache.overallMshrMisses::cpu.data     14886767                       # number of overall MSHR misses (Count)
system.l2cache.overallMshrMisses::total      14887350                       # number of overall MSHR misses (Count)
system.l2cache.demandMshrMissLatency::cpu.inst     35809860                       # number of demand (read+write) MSHR miss ticks (Tick)
system.l2cache.demandMshrMissLatency::cpu.data 1048663703520                       # number of demand (read+write) MSHR miss ticks (Tick)
system.l2cache.demandMshrMissLatency::total 1048699513380                       # number of demand (read+write) MSHR miss ticks (Tick)
system.l2cache.overallMshrMissLatency::cpu.inst     35809860                       # number of overall MSHR miss ticks (Tick)
system.l2cache.overallMshrMissLatency::cpu.data 1048663703520                       # number of overall MSHR miss ticks (Tick)
system.l2cache.overallMshrMissLatency::total 1048699513380                       # number of overall MSHR miss ticks (Tick)
system.l2cache.demandMshrMissRate::cpu.inst     0.000554                       # mshr miss ratio for demand accesses (Ratio)
system.l2cache.demandMshrMissRate::cpu.data     0.459254                       # mshr miss ratio for demand accesses (Ratio)
system.l2cache.demandMshrMissRate::total     0.444820                       # mshr miss ratio for demand accesses (Ratio)
system.l2cache.overallMshrMissRate::cpu.inst     0.000554                       # mshr miss ratio for overall accesses (Ratio)
system.l2cache.overallMshrMissRate::cpu.data     0.459254                       # mshr miss ratio for overall accesses (Ratio)
system.l2cache.overallMshrMissRate::total     0.444820                       # mshr miss ratio for overall accesses (Ratio)
system.l2cache.demandAvgMshrMissLatency::cpu.inst 61423.430532                       # average overall mshr miss latency ((Tick/Count))
system.l2cache.demandAvgMshrMissLatency::cpu.data 70442.675936                       # average overall mshr miss latency ((Tick/Count))
system.l2cache.demandAvgMshrMissLatency::total 70442.322736                       # average overall mshr miss latency ((Tick/Count))
system.l2cache.overallAvgMshrMissLatency::cpu.inst 61423.430532                       # average overall mshr miss latency ((Tick/Count))
system.l2cache.overallAvgMshrMissLatency::cpu.data 70442.675936                       # average overall mshr miss latency ((Tick/Count))
system.l2cache.overallAvgMshrMissLatency::total 70442.322736                       # average overall mshr miss latency ((Tick/Count))
system.l2cache.replacements                  14854709                       # number of replacements (Count)
system.l2cache.CleanEvict.mshrMisses::writebacks          107                       # number of CleanEvict MSHR misses (Count)
system.l2cache.CleanEvict.mshrMisses::total          107                       # number of CleanEvict MSHR misses (Count)
system.l2cache.CleanEvict.mshrMissRate::writebacks          inf                       # mshr miss rate for CleanEvict accesses (Ratio)
system.l2cache.CleanEvict.mshrMissRate::total          inf                       # mshr miss rate for CleanEvict accesses (Ratio)
system.l2cache.ReadExReq.hits::cpu.data        473175                       # number of ReadExReq hits (Count)
system.l2cache.ReadExReq.hits::total           473175                       # number of ReadExReq hits (Count)
system.l2cache.ReadExReq.misses::cpu.data       315414                       # number of ReadExReq misses (Count)
system.l2cache.ReadExReq.misses::total         315414                       # number of ReadExReq misses (Count)
system.l2cache.ReadExReq.missLatency::cpu.data  25841191590                       # number of ReadExReq miss ticks (Tick)
system.l2cache.ReadExReq.missLatency::total  25841191590                       # number of ReadExReq miss ticks (Tick)
system.l2cache.ReadExReq.accesses::cpu.data       788589                       # number of ReadExReq accesses(hits+misses) (Count)
system.l2cache.ReadExReq.accesses::total       788589                       # number of ReadExReq accesses(hits+misses) (Count)
system.l2cache.ReadExReq.missRate::cpu.data     0.399973                       # miss rate for ReadExReq accesses (Ratio)
system.l2cache.ReadExReq.missRate::total     0.399973                       # miss rate for ReadExReq accesses (Ratio)
system.l2cache.ReadExReq.avgMissLatency::cpu.data 81927.852251                       # average ReadExReq miss latency ((Tick/Count))
system.l2cache.ReadExReq.avgMissLatency::total 81927.852251                       # average ReadExReq miss latency ((Tick/Count))
system.l2cache.ReadExReq.mshrMisses::cpu.data       315414                       # number of ReadExReq MSHR misses (Count)
system.l2cache.ReadExReq.mshrMisses::total       315414                       # number of ReadExReq MSHR misses (Count)
system.l2cache.ReadExReq.mshrMissLatency::cpu.data  22687051590                       # number of ReadExReq MSHR miss ticks (Tick)
system.l2cache.ReadExReq.mshrMissLatency::total  22687051590                       # number of ReadExReq MSHR miss ticks (Tick)
system.l2cache.ReadExReq.mshrMissRate::cpu.data     0.399973                       # mshr miss rate for ReadExReq accesses (Ratio)
system.l2cache.ReadExReq.mshrMissRate::total     0.399973                       # mshr miss rate for ReadExReq accesses (Ratio)
system.l2cache.ReadExReq.avgMshrMissLatency::cpu.data 71927.852251                       # average ReadExReq mshr miss latency ((Tick/Count))
system.l2cache.ReadExReq.avgMshrMissLatency::total 71927.852251                       # average ReadExReq mshr miss latency ((Tick/Count))
system.l2cache.ReadSharedReq.hits::cpu.inst      1052508                       # number of ReadSharedReq hits (Count)
system.l2cache.ReadSharedReq.hits::cpu.data     17055180                       # number of ReadSharedReq hits (Count)
system.l2cache.ReadSharedReq.hits::total     18107688                       # number of ReadSharedReq hits (Count)
system.l2cache.ReadSharedReq.misses::cpu.inst          583                       # number of ReadSharedReq misses (Count)
system.l2cache.ReadSharedReq.misses::cpu.data     14571363                       # number of ReadSharedReq misses (Count)
system.l2cache.ReadSharedReq.misses::total     14571946                       # number of ReadSharedReq misses (Count)
system.l2cache.ReadSharedReq.missLatency::cpu.inst     41639860                       # number of ReadSharedReq miss ticks (Tick)
system.l2cache.ReadSharedReq.missLatency::cpu.data 1171690813720                       # number of ReadSharedReq miss ticks (Tick)
system.l2cache.ReadSharedReq.missLatency::total 1171732453580                       # number of ReadSharedReq miss ticks (Tick)
system.l2cache.ReadSharedReq.accesses::cpu.inst      1053091                       # number of ReadSharedReq accesses(hits+misses) (Count)
system.l2cache.ReadSharedReq.accesses::cpu.data     31626543                       # number of ReadSharedReq accesses(hits+misses) (Count)
system.l2cache.ReadSharedReq.accesses::total     32679634                       # number of ReadSharedReq accesses(hits+misses) (Count)
system.l2cache.ReadSharedReq.missRate::cpu.inst     0.000554                       # miss rate for ReadSharedReq accesses (Ratio)
system.l2cache.ReadSharedReq.missRate::cpu.data     0.460732                       # miss rate for ReadSharedReq accesses (Ratio)
system.l2cache.ReadSharedReq.missRate::total     0.445903                       # miss rate for ReadSharedReq accesses (Ratio)
system.l2cache.ReadSharedReq.avgMissLatency::cpu.inst 71423.430532                       # average ReadSharedReq miss latency ((Tick/Count))
system.l2cache.ReadSharedReq.avgMissLatency::cpu.data 80410.515730                       # average ReadSharedReq miss latency ((Tick/Count))
system.l2cache.ReadSharedReq.avgMissLatency::total 80410.156171                       # average ReadSharedReq miss latency ((Tick/Count))
system.l2cache.ReadSharedReq.mshrHits::cpu.data           10                       # number of ReadSharedReq MSHR hits (Count)
system.l2cache.ReadSharedReq.mshrHits::total           10                       # number of ReadSharedReq MSHR hits (Count)
system.l2cache.ReadSharedReq.mshrMisses::cpu.inst          583                       # number of ReadSharedReq MSHR misses (Count)
system.l2cache.ReadSharedReq.mshrMisses::cpu.data     14571353                       # number of ReadSharedReq MSHR misses (Count)
system.l2cache.ReadSharedReq.mshrMisses::total     14571936                       # number of ReadSharedReq MSHR misses (Count)
system.l2cache.ReadSharedReq.mshrMissLatency::cpu.inst     35809860                       # number of ReadSharedReq MSHR miss ticks (Tick)
system.l2cache.ReadSharedReq.mshrMissLatency::cpu.data 1025976651930                       # number of ReadSharedReq MSHR miss ticks (Tick)
system.l2cache.ReadSharedReq.mshrMissLatency::total 1026012461790                       # number of ReadSharedReq MSHR miss ticks (Tick)
system.l2cache.ReadSharedReq.mshrMissRate::cpu.inst     0.000554                       # mshr miss rate for ReadSharedReq accesses (Ratio)
system.l2cache.ReadSharedReq.mshrMissRate::cpu.data     0.460732                       # mshr miss rate for ReadSharedReq accesses (Ratio)
system.l2cache.ReadSharedReq.mshrMissRate::total     0.445903                       # mshr miss rate for ReadSharedReq accesses (Ratio)
system.l2cache.ReadSharedReq.avgMshrMissLatency::cpu.inst 61423.430532                       # average ReadSharedReq mshr miss latency ((Tick/Count))
system.l2cache.ReadSharedReq.avgMshrMissLatency::cpu.data 70410.527556                       # average ReadSharedReq mshr miss latency ((Tick/Count))
system.l2cache.ReadSharedReq.avgMshrMissLatency::total 70410.167996                       # average ReadSharedReq mshr miss latency ((Tick/Count))
system.l2cache.WritebackDirty.hits::writebacks      9969692                       # number of WritebackDirty hits (Count)
system.l2cache.WritebackDirty.hits::total      9969692                       # number of WritebackDirty hits (Count)
system.l2cache.WritebackDirty.accesses::writebacks      9969692                       # number of WritebackDirty accesses(hits+misses) (Count)
system.l2cache.WritebackDirty.accesses::total      9969692                       # number of WritebackDirty accesses(hits+misses) (Count)
system.l2cache.power_state.pwrStateResidencyTicks::UNDEFINED 1788568501880                       # Cumulative time (in ticks) in various power states (Tick)
system.l2cache.tags.tagsInUse            32654.730101                       # Average ticks per tags in use ((Tick/Count))
system.l2cache.tags.totalRefs                66890515                       # Total number of references to valid blocks. (Count)
system.l2cache.tags.sampledRefs              14887477                       # Sample count of references to valid blocks. (Count)
system.l2cache.tags.avgRefs                  4.493073                       # Average number of references to valid blocks. ((Count/Count))
system.l2cache.tags.warmupTick                  71000                       # The tick when the warmup percentage was hit. (Tick)
system.l2cache.tags.occupancies::writebacks     0.821689                       # Average occupied blocks per tick, per requestor ((Count/Tick))
system.l2cache.tags.occupancies::cpu.inst     4.186890                       # Average occupied blocks per tick, per requestor ((Count/Tick))
system.l2cache.tags.occupancies::cpu.data 32649.721521                       # Average occupied blocks per tick, per requestor ((Count/Tick))
system.l2cache.tags.avgOccs::writebacks      0.000025                       # Average percentage of cache occupancy ((Ratio/Tick))
system.l2cache.tags.avgOccs::cpu.inst        0.000128                       # Average percentage of cache occupancy ((Ratio/Tick))
system.l2cache.tags.avgOccs::cpu.data        0.996390                       # Average percentage of cache occupancy ((Ratio/Tick))
system.l2cache.tags.avgOccs::total           0.996543                       # Average percentage of cache occupancy ((Ratio/Tick))
system.l2cache.tags.occupanciesTaskId::1024        32768                       # Occupied blocks per task id (Count)
system.l2cache.tags.ageTaskId_1024::0             129                       # Occupied blocks per task id, per block age (Count)
system.l2cache.tags.ageTaskId_1024::1            1157                       # Occupied blocks per task id, per block age (Count)
[...]
system.mem_ctrl.dram.perBankRdBursts::10       466827                       # Per bank write bursts (Count)
system.mem_ctrl.dram.perBankRdBursts::11       466039                       # Per bank write bursts (Count)
system.mem_ctrl.dram.perBankRdBursts::12       446733                       # Per bank write bursts (Count)
system.mem_ctrl.dram.perBankRdBursts::13       461173                       # Per bank write bursts (Count)
system.mem_ctrl.dram.perBankRdBursts::14       458291                       # Per bank write bursts (Count)
system.mem_ctrl.dram.perBankRdBursts::15       459658                       # Per bank write bursts (Count)
system.mem_ctrl.dram.perBankRdBursts::16       445838                       # Per bank write bursts (Count)
system.mem_ctrl.dram.perBankRdBursts::17       461215                       # Per bank write bursts (Count)
system.mem_ctrl.dram.perBankRdBursts::18       430738                       # Per bank write bursts (Count)
system.mem_ctrl.dram.perBankRdBursts::19       447138                       # Per bank write bursts (Count)
system.mem_ctrl.dram.perBankRdBursts::20       438833                       # Per bank write bursts (Count)
system.mem_ctrl.dram.perBankRdBursts::21       456511                       # Per bank write bursts (Count)
system.mem_ctrl.dram.perBankRdBursts::22       448396                       # Per bank write bursts (Count)
system.mem_ctrl.dram.perBankRdBursts::23       465492                       # Per bank write bursts (Count)
system.mem_ctrl.dram.perBankRdBursts::24       473943                       # Per bank write bursts (Count)
system.mem_ctrl.dram.perBankRdBursts::25       464585                       # Per bank write bursts (Count)
system.mem_ctrl.dram.perBankRdBursts::26       461988                       # Per bank write bursts (Count)
system.mem_ctrl.dram.perBankRdBursts::27       470658                       # Per bank write bursts (Count)
system.mem_ctrl.dram.perBankRdBursts::28       468313                       # Per bank write bursts (Count)
system.mem_ctrl.dram.perBankRdBursts::29       469788                       # Per bank write bursts (Count)
system.mem_ctrl.dram.perBankRdBursts::30       482372                       # Per bank write bursts (Count)
system.mem_ctrl.dram.perBankRdBursts::31       466399                       # Per bank write bursts (Count)
system.mem_ctrl.dram.perBankWrBursts::0        179811                       # Per bank write bursts (Count)
system.mem_ctrl.dram.perBankWrBursts::1        172910                       # Per bank write bursts (Count)
system.mem_ctrl.dram.perBankWrBursts::2        180279                       # Per bank write bursts (Count)
system.mem_ctrl.dram.perBankWrBursts::3        172719                       # Per bank write bursts (Count)
system.mem_ctrl.dram.perBankWrBursts::4        178748                       # Per bank write bursts (Count)
system.mem_ctrl.dram.perBankWrBursts::5        172088                       # Per bank write bursts (Count)
system.mem_ctrl.dram.perBankWrBursts::6        180178                       # Per bank write bursts (Count)
system.mem_ctrl.dram.perBankWrBursts::7        171601                       # Per bank write bursts (Count)
system.mem_ctrl.dram.perBankWrBursts::8        179852                       # Per bank write bursts (Count)
system.mem_ctrl.dram.perBankWrBursts::9        180003                       # Per bank write bursts (Count)
system.mem_ctrl.dram.perBankWrBursts::10       172414                       # Per bank write bursts (Count)
system.mem_ctrl.dram.perBankWrBursts::11       179263                       # Per bank write bursts (Count)
system.mem_ctrl.dram.perBankWrBursts::12       171854                       # Per bank write bursts (Count)
system.mem_ctrl.dram.perBankWrBursts::13       179157                       # Per bank write bursts (Count)
system.mem_ctrl.dram.perBankWrBursts::14       177076                       # Per bank write bursts (Count)
system.mem_ctrl.dram.perBankWrBursts::15       179171                       # Per bank write bursts (Count)
system.mem_ctrl.dram.perBankWrBursts::16       172928                       # Per bank write bursts (Count)
system.mem_ctrl.dram.perBankWrBursts::17       179003                       # Per bank write bursts (Count)
system.mem_ctrl.dram.perBankWrBursts::18       163623                       # Per bank write bursts (Count)
system.mem_ctrl.dram.perBankWrBursts::19       178726                       # Per bank write bursts (Count)
system.mem_ctrl.dram.perBankWrBursts::20       163685                       # Per bank write bursts (Count)
system.mem_ctrl.dram.perBankWrBursts::21       180890                       # Per bank write bursts (Count)
system.mem_ctrl.dram.perBankWrBursts::22       172698                       # Per bank write bursts (Count)
system.mem_ctrl.dram.perBankWrBursts::23       179484                       # Per bank write bursts (Count)
system.mem_ctrl.dram.perBankWrBursts::24       172793                       # Per bank write bursts (Count)
system.mem_ctrl.dram.perBankWrBursts::25       179920                       # Per bank write bursts (Count)
system.mem_ctrl.dram.perBankWrBursts::26       172677                       # Per bank write bursts (Count)
system.mem_ctrl.dram.perBankWrBursts::27       180230                       # Per bank write bursts (Count)
system.mem_ctrl.dram.perBankWrBursts::28       179906                       # Per bank write bursts (Count)
system.mem_ctrl.dram.perBankWrBursts::29       172479                       # Per bank write bursts (Count)
system.mem_ctrl.dram.perBankWrBursts::30       179454                       # Per bank write bursts (Count)
system.mem_ctrl.dram.perBankWrBursts::31       172129                       # Per bank write bursts (Count)
system.mem_ctrl.dram.totQLat             248237551220                       # Total ticks spent queuing (Tick)
system.mem_ctrl.dram.totBusLat            49582392440                       # Total ticks spent in databus transfers (Tick)
system.mem_ctrl.dram.totMemAccLat        508530230860                       # Total ticks spent from burst creation until serviced by the DRAM (Tick)
system.mem_ctrl.dram.avgQLat                 16681.88                       # Average queueing delay per DRAM burst ((Tick/Count))
system.mem_ctrl.dram.avgBusLat                3332.00                       # Average bus latency per DRAM burst ((Tick/Count))
system.mem_ctrl.dram.avgMemAccLat            34173.88                       # Average memory access latency per DRAM burst ((Tick/Count))
system.mem_ctrl.dram.readRowHits              7000934                       # Number of row buffer hits during reads (Count)
system.mem_ctrl.dram.writeRowHits             2801508                       # Number of row buffer hits during writes (Count)
system.mem_ctrl.dram.readRowHitRate             47.05                       # Row buffer hit rate for reads (Ratio)
system.mem_ctrl.dram.writeRowHitRate            49.78                       # Row buffer hit rate for writes (Ratio)
system.mem_ctrl.dram.bytesPerActivate::samples     10705971                       # Bytes accessed per row activation (Byte)
system.mem_ctrl.dram.bytesPerActivate::mean   122.598603                       # Bytes accessed per row activation (Byte)
system.mem_ctrl.dram.bytesPerActivate::gmean    85.263033                       # Bytes accessed per row activation (Byte)
system.mem_ctrl.dram.bytesPerActivate::stdev   177.642953                       # Bytes accessed per row activation (Byte)
system.mem_ctrl.dram.bytesPerActivate::0-127      8456565     78.99%     78.99% # Bytes accessed per row activation (Byte)
system.mem_ctrl.dram.bytesPerActivate::128-255      1274546     11.91%     90.89% # Bytes accessed per row activation (Byte)
system.mem_ctrl.dram.bytesPerActivate::256-383       251176      2.35%     93.24% # Bytes accessed per row activation (Byte)
system.mem_ctrl.dram.bytesPerActivate::384-511       181906      1.70%     94.94% # Bytes accessed per row activation (Byte)
system.mem_ctrl.dram.bytesPerActivate::512-639       125728      1.17%     96.11% # Bytes accessed per row activation (Byte)
system.mem_ctrl.dram.bytesPerActivate::640-767        86384      0.81%     96.92% # Bytes accessed per row activation (Byte)
system.mem_ctrl.dram.bytesPerActivate::768-895        61365      0.57%     97.49% # Bytes accessed per row activation (Byte)
system.mem_ctrl.dram.bytesPerActivate::896-1023        50296      0.47%     97.96% # Bytes accessed per row activation (Byte)
system.mem_ctrl.dram.bytesPerActivate::1024-1151       218005      2.04%    100.00% # Bytes accessed per row activation (Byte)
system.mem_ctrl.dram.bytesPerActivate::total     10705971                       # Bytes accessed per row activation (Byte)
system.mem_ctrl.dram.bytesRead              952362880                       # Total bytes read (Byte)
system.mem_ctrl.dram.bytesWritten           360175936                       # Total bytes written (Byte)
system.mem_ctrl.dram.avgRdBW               532.472130                       # Average DRAM read bandwidth in MiBytes/s ((Byte/Second))
system.mem_ctrl.dram.avgWrBW               201.376652                       # Average DRAM write bandwidth in MiBytes/s ((Byte/Second))
system.mem_ctrl.dram.peakBW                  19207.00                       # Theoretical peak bandwidth in MiByte/s ((Byte/Second))
system.mem_ctrl.dram.busUtil                     3.82                       # Data bus utilization in percentage (Ratio)
system.mem_ctrl.dram.busUtilRead                 2.77                       # Data bus utilization in percentage for reads (Ratio)
system.mem_ctrl.dram.busUtilWrite                1.05                       # Data bus utilization in percentage for writes (Ratio)
system.mem_ctrl.dram.pageHitRate                47.80                       # Row buffer hit rate, read and write combined (Ratio)
system.mem_ctrl.dram.power_state.pwrStateResidencyTicks::UNDEFINED 1788568501880                       # Cumulative time (in ticks) in various power states (Tick)
system.mem_ctrl.dram.rank0.actEnergy     16734951900.574619                       # Energy for activate commands per rank (pJ) (Joule)
system.mem_ctrl.dram.rank0.preEnergy     22248879123.105385                       # Energy for precharge commands per rank (pJ) (Joule)
system.mem_ctrl.dram.rank0.readEnergy    31667100395.081779                       # Energy for read commands per rank (pJ) (Joule)
system.mem_ctrl.dram.rank0.writeEnergy   10625734245.504677                       # Energy for write commands per rank (pJ) (Joule)
system.mem_ctrl.dram.rank0.refreshEnergy 318248948519.832458                       # Energy for refresh commands per rank (pJ) (Joule)
system.mem_ctrl.dram.rank0.actBackEnergy 1280418765411.134277                       # Energy for active background per rank (pJ) (Joule)
system.mem_ctrl.dram.rank0.preBackEnergy 183752930087.950378                       # Energy for precharge background per rank (pJ) (Joule)
system.mem_ctrl.dram.rank0.actPowerDownEnergy            0                       # Energy for active power-down per rank (pJ) (Joule)
system.mem_ctrl.dram.rank0.prePowerDownEnergy            0                       # Energy for precharge power-down per rank (pJ) (Joule)
system.mem_ctrl.dram.rank0.selfRefreshEnergy            0                       # Energy for self refresh per rank (pJ) (Joule)
system.mem_ctrl.dram.rank0.totalEnergy   1863697309685.257568                       # Total energy per rank (pJ) (Joule)
system.mem_ctrl.dram.rank0.averagePower   1042.004993                       # Core power per rank (mW) (Watt)
system.mem_ctrl.dram.rank0.totalIdleTime            0                       # Total Idle time Per DRAM Rank (Tick)
system.mem_ctrl.dram.rank0.pwrStateTime::IDLE 273891188728                       # Time in different power states (Tick)
system.mem_ctrl.dram.rank0.pwrStateTime::REF  80402000000                       # Time in different power states (Tick)
system.mem_ctrl.dram.rank0.pwrStateTime::SREF            0                       # Time in different power states (Tick)
system.mem_ctrl.dram.rank0.pwrStateTime::PRE_PDN            0                       # Time in different power states (Tick)
system.mem_ctrl.dram.rank0.pwrStateTime::ACT 1434275313152                       # Time in different power states (Tick)
system.mem_ctrl.dram.rank0.pwrStateTime::ACT_PDN            0                       # Time in different power states (Tick)
system.mem_ctrl.dram.rank1.actEnergy     16654335280.126184                       # Energy for activate commands per rank (pJ) (Joule)
system.mem_ctrl.dram.rank1.preEnergy     22141725237.811226                       # Energy for precharge commands per rank (pJ) (Joule)
system.mem_ctrl.dram.rank1.readEnergy    30925711821.182617                       # Energy for read commands per rank (pJ) (Joule)
system.mem_ctrl.dram.rank1.writeEnergy   10526137860.000572                       # Energy for write commands per rank (pJ) (Joule)
system.mem_ctrl.dram.rank1.refreshEnergy 318248948519.832458                       # Energy for refresh commands per rank (pJ) (Joule)
system.mem_ctrl.dram.rank1.actBackEnergy 1278225480276.289062                       # Energy for active background per rank (pJ) (Joule)
system.mem_ctrl.dram.rank1.preBackEnergy 185438166123.796051                       # Energy for precharge background per rank (pJ) (Joule)
system.mem_ctrl.dram.rank1.actPowerDownEnergy            0                       # Energy for active power-down per rank (pJ) (Joule)
system.mem_ctrl.dram.rank1.prePowerDownEnergy            0                       # Energy for precharge power-down per rank (pJ) (Joule)
system.mem_ctrl.dram.rank1.selfRefreshEnergy            0                       # Energy for self refresh per rank (pJ) (Joule)
system.mem_ctrl.dram.rank1.totalEnergy   1862160505121.048096                       # Total energy per rank (pJ) (Joule)
system.mem_ctrl.dram.rank1.averagePower   1041.145756                       # Core power per rank (mW) (Watt)
system.mem_ctrl.dram.rank1.totalIdleTime            0                       # Total Idle time Per DRAM Rank (Tick)
system.mem_ctrl.dram.rank1.pwrStateTime::IDLE 276607777834                       # Time in different power states (Tick)
system.mem_ctrl.dram.rank1.pwrStateTime::REF  80402000000                       # Time in different power states (Tick)
system.mem_ctrl.dram.rank1.pwrStateTime::SREF            0                       # Time in different power states (Tick)
system.mem_ctrl.dram.rank1.pwrStateTime::PRE_PDN            0                       # Time in different power states (Tick)
system.mem_ctrl.dram.rank1.pwrStateTime::ACT 1431558724046                       # Time in different power states (Tick)
system.mem_ctrl.dram.rank1.pwrStateTime::ACT_PDN            0                       # Time in different power states (Tick)
system.mem_ctrl.power_state.pwrStateResidencyTicks::UNDEFINED 1788568501880                       # Cumulative time (in ticks) in various power states (Tick)
system.membus.transDist::ReadResp            14571936                       # Transaction distribution (Count)
system.membus.transDist::WritebackDirty       5627811                       # Transaction distribution (Count)
system.membus.transDist::CleanEvict           9226074                       # Transaction distribution (Count)
system.membus.transDist::ReadExReq             315414                       # Transaction distribution (Count)
system.membus.transDist::ReadExResp            315414                       # Transaction distribution (Count)
system.membus.transDist::ReadSharedReq       14571936                       # Transaction distribution (Count)
system.membus.pktCount_system.l2cache.mem_side_port::system.mem_ctrl.port     44628585                       # Packet count per connected requestor and responder (Count)
system.membus.pktCount::total                44628585                       # Packet count per connected requestor and responder (Count)
system.membus.pktSize_system.l2cache.mem_side_port::system.mem_ctrl.port   1312970304                       # Cumulative packet size per connected requestor and responder (Byte)
system.membus.pktSize::total               1312970304                       # Cumulative packet size per connected requestor and responder (Byte)
system.membus.snoops                                0                       # Total snoops (Count)
system.membus.snoopTraffic                          0                       # Total snoop traffic (Byte)
system.membus.snoopFanout::samples           14887350                       # Request fanout histogram (Count)
system.membus.snoopFanout::mean                     0                       # Request fanout histogram (Count)
system.membus.snoopFanout::stdev                    0                       # Request fanout histogram (Count)
system.membus.snoopFanout::underflows               0      0.00%      0.00% # Request fanout histogram (Count)
system.membus.snoopFanout::0                 14887350    100.00%    100.00% # Request fanout histogram (Count)
system.membus.snoopFanout::1                        0      0.00%    100.00% # Request fanout histogram (Count)
system.membus.snoopFanout::overflows                0      0.00%    100.00% # Request fanout histogram (Count)
system.membus.snoopFanout::min_value                0                       # Request fanout histogram (Count)
system.membus.snoopFanout::max_value                0                       # Request fanout histogram (Count)
system.membus.snoopFanout::total             14887350                       # Request fanout histogram (Count)
system.membus.power_state.pwrStateResidencyTicks::UNDEFINED 1788568501880                       # Cumulative time (in ticks) in various power states (Tick)
system.membus.reqLayer0.occupancy         29210060350                       # Layer occupancy (ticks) (Tick)
system.membus.reqLayer0.utilization               0.0                       # Layer utilization (Ratio)
system.membus.respLayer0.occupancy        39401124192                       # Layer occupancy (ticks) (Tick)
system.membus.respLayer0.utilization              0.0                       # Layer utilization (Ratio)
system.membus.snoop_filter.totRequests       29741235                       # Total number of requests made to the snoop filter. (Count)
system.membus.snoop_filter.hitSingleRequests     14854121                       # Number of requests hitting in the snoop filter with a single holder of the requested data. (Count)
system.membus.snoop_filter.hitMultiRequests            0                       # Number of requests hitting in the snoop filter with multiple (>1) holders of the requested data. (Count)
system.membus.snoop_filter.totSnoops                0                       # Total number of snoops made to the snoop filter. (Count)
system.membus.snoop_filter.hitSingleSnoops            0                       # Number of snoops hitting in the snoop filter with a single holder of the requested data. (Count)
system.membus.snoop_filter.hitMultiSnoops            0                       # Number of snoops hitting in the snoop filter with multiple (>1) holders of the requested data. (Count)
system.workload.inst.arm                            0                       # number of arm instructions executed (Count)
system.workload.inst.quiesce                        0                       # number of quiesce instructions executed (Count)
system.cpu.idleCycles                      3429876277                       # Total number of cycles that the object has spent stopped (Unspecified)
system.cpu.tickCycles                      1404092647                       # Number of cycles that the object actually ticked (Unspecified)

---------- End Simulation Statistics   ----------
