
---------- Begin Simulation Statistics ----------
simSeconds                                   0.909323                       # Number of seconds simulated (Second)
simTicks                                 909322670125                       # Number of ticks simulated (Tick)
finalTick                                909322670125                       # Number of ticks from beginning of simulation (restored from checkpoints and never reset) (Tick)
simFreq                                  1000000000000                       # The number of ticks per simulated second ((Tick/Second))
hostSeconds                                   7449.03                       # Real time elapsed on the host (Second)
hostTickRate                                122072595                       # The number of ticks simulated per host second (ticks/s) ((Tick/Second))
hostMemory                                    2287740                       # Number of bytes of host memory used (Byte)
simInsts                                   1000000000                       # Number of instructions simulated (Count)
simOps                                     1084388561                       # Number of ops (including micro ops) simulated (Count)
hostInstRate                                   134246                       # Simulator instruction rate (inst/s) ((Count/Second))
hostOpRate                                     145574                       # Simulator op (including micro ops) rate (op/s) ((Count/Second))
system.clk_domain.clock                           500                       # Clock period in ticks (Tick)
system.clk_domain.voltage_domain.voltage            1                       # Voltage in Volts (Volt)
system.cpu.numCycles                       7274581362                       # Number of cpu cycles simulated (Cycle)
system.cpu.numWorkItemsStarted                      0                       # Number of work items this cpu started (Count)
system.cpu.numWorkItemsCompleted                    0                       # Number of work items this cpu completed (Count)
system.cpu.instsAdded                      1427982095                       # Number of instructions added to the IQ (excludes non-spec) (Count)
system.cpu.nonSpecInstsAdded                  3804345                       # Number of non-speculative instructions added to the IQ (Count)
system.cpu.instsIssued                     1438536053                       # Number of instructions issued (Count)
system.cpu.squashedInstsIssued               11869268                       # Number of squashed instructions issued (Count)
system.cpu.squashedInstsExamined            347397813                       # Number of squashed instructions iterated over during squash; mainly for profiling (Count)
system.cpu.squashedOperandsExamined         812885968                       # Number of squashed operands that are examined and possibly removed from graph (Count)
system.cpu.squashedNonSpecRemoved               14905                       # Number of squashed non-spec instructions that were removed (Count)
system.cpu.numIssuedDist::samples          7274402899                       # Number of insts issued each cycle (Count)
system.cpu.numIssuedDist::mean               0.197753                       # Number of insts issued each cycle (Count)
system.cpu.numIssuedDist::stdev              0.868583                       # Number of insts issued each cycle (Count)
system.cpu.numIssuedDist::underflows                0      0.00%      0.00% # Number of insts issued each cycle (Count)
system.cpu.numIssuedDist::0                6766216937     93.01%     93.01% # Number of insts issued each cycle (Count)
system.cpu.numIssuedDist::1                 167902155      2.31%     95.32% # Number of insts issued each cycle (Count)
system.cpu.numIssuedDist::2                  98134191      1.35%     96.67% # Number of insts issued each cycle (Count)
system.cpu.numIssuedDist::3                  72511315      1.00%     97.67% # Number of insts issued each cycle (Count)
system.cpu.numIssuedDist::4                  72117560      0.99%     98.66% # Number of insts issued each cycle (Count)
system.cpu.numIssuedDist::5                  47434922      0.65%     99.31% # Number of insts issued each cycle (Count)
system.cpu.numIssuedDist::6                  28382397      0.39%     99.70% # Number of insts issued each cycle (Count)
system.cpu.numIssuedDist::7                  12735037      0.18%     99.88% # Number of insts issued each cycle (Count)
system.cpu.numIssuedDist::8                   8968385      0.12%    100.00% # Number of insts issued each cycle (Count)
system.cpu.numIssuedDist::overflows                 0      0.00%    100.00% # Number of insts issued each cycle (Count)
system.cpu.numIssuedDist::min_value                 0                       # Number of insts issued each cycle (Count)
system.cpu.numIssuedDist::max_value                 8                       # Number of insts issued each cycle (Count)
system.cpu.numIssuedDist::total            7274402899                       # Number of insts issued each cycle (Count)
system.cpu.statFuBusy::No_OpClass                   0      0.00%      0.00% # attempts to use FU when none available (Count)
system.cpu.statFuBusy::IntAlu                 1143427      2.23%      2.23% # attempts to use FU when none available (Count)
system.cpu.statFuBusy::IntMult                      0      0.00%      2.23% # attempts to use FU when none available (Count)
system.cpu.statFuBusy::IntDiv                       0      0.00%      2.23% # attempts to use FU when none available (Count)
system.cpu.statFuBusy::FloatAdd                     0      0.00%      2.23% # attempts to use FU when none available (Count)
system.cpu.statFuBusy::FloatCmp                     0      0.00%      2.23% # attempts to use FU when none available (Count)
system.cpu.statFuBusy::FloatCvt                     0      0.00%      2.23% # attempts to use FU when none available (Count)
system.cpu.statFuBusy::FloatMult                    0      0.00%      2.23% # attempts to use FU when none available (Count)
system.cpu.statFuBusy::FloatMultAcc                 0      0.00%      2.23% # attempts to use FU when none available (Count)
system.cpu.statFuBusy::FloatDiv                     0      0.00%      2.23% # attempts to use FU when none available (Count)
system.cpu.statFuBusy::FloatMisc                    0      0.00%      2.23% # attempts to use FU when none available (Count)
system.cpu.statFuBusy::FloatSqrt                    0      0.00%      2.23% # attempts to use FU when none available (Count)
system.cpu.statFuBusy::SimdAdd                      0      0.00%      2.23% # attempts to use FU when none available (Count)
system.cpu.statFuBusy::SimdAddAcc                   0      0.00%      2.23% # attempts to use FU when none available (Count)
system.cpu.statFuBusy::SimdAlu                      0      0.00%      2.23% # attempts to use FU when none available (Count)
system.cpu.statFuBusy::SimdCmp                      0      0.00%      2.23% # attempts to use FU when none available (Count)
system.cpu.statFuBusy::SimdCvt                      0      0.00%      2.23% # attempts to use FU when none available (Count)
system.cpu.statFuBusy::SimdMisc                     0      0.00%      2.23% # attempts to use FU when none available (Count)
system.cpu.statFuBusy::SimdMult                     0      0.00%      2.23% # attempts to use FU when none available (Count)
system.cpu.statFuBusy::SimdMultAcc                  0      0.00%      2.23% # attempts to use FU when none available (Count)
system.cpu.statFuBusy::SimdShift                    0      0.00%      2.23% # attempts to use FU when none available (Count)
system.cpu.statFuBusy::SimdShiftAcc                 0      0.00%      2.23% # attempts to use FU when none available (Count)
system.cpu.statFuBusy::SimdDiv                      0      0.00%      2.23% # attempts to use FU when none available (Count)
system.cpu.statFuBusy::SimdSqrt                     0      0.00%      2.23% # attempts to use FU when none available (Count)
system.cpu.statFuBusy::SimdFloatAdd                 0      0.00%      2.23% # attempts to use FU when none available (Count)
system.cpu.statFuBusy::SimdFloatAlu                 0      0.00%      2.23% # attempts to use FU when none available (Count)
system.cpu.statFuBusy::SimdFloatCmp                 0      0.00%      2.23% # attempts to use FU when none available (Count)
system.cpu.statFuBusy::SimdFloatCvt                 0      0.00%      2.23% # attempts to use FU when none available (Count)
system.cpu.statFuBusy::SimdFloatDiv                 0      0.00%      2.23% # attempts to use FU when none available (Count)
system.cpu.statFuBusy::SimdFloatMisc                0      0.00%      2.23% # attempts to use FU when none available (Count)
system.cpu.statFuBusy::SimdFloatMult                0      0.00%      2.23% # attempts to use FU when none available (Count)
system.cpu.statFuBusy::SimdFloatMultAcc             0      0.00%      2.23% # attempts to use FU when none available (Count)
system.cpu.statFuBusy::SimdFloatSqrt                0      0.00%      2.23% # attempts to use FU when none available (Count)
system.cpu.statFuBusy::SimdReduceAdd                0      0.00%      2.23% # attempts to use FU when none available (Count)
system.cpu.statFuBusy::SimdReduceAlu                0      0.00%      2.23% # attempts to use FU when none available (Count)
system.cpu.statFuBusy::SimdReduceCmp                0      0.00%      2.23% # attempts to use FU when none available (Count)
system.cpu.statFuBusy::SimdFloatReduceAdd            0      0.00%      2.23% # attempts to use FU when none available (Count)
system.cpu.statFuBusy::SimdFloatReduceCmp            0      0.00%      2.23% # attempts to use FU when none available (Count)
system.cpu.statFuBusy::SimdAes                      0      0.00%      2.23% # attempts to use FU when none available (Count)
system.cpu.statFuBusy::SimdAesMix                   0      0.00%      2.23% # attempts to use FU when none available (Count)
system.cpu.statFuBusy::SimdSha1Hash                 0      0.00%      2.23% # attempts to use FU when none available (Count)
system.cpu.statFuBusy::SimdSha1Hash2                0      0.00%      2.23% # attempts to use FU when none available (Count)
system.cpu.statFuBusy::SimdSha256Hash               0      0.00%      2.23% # attempts to use FU when none available (Count)
system.cpu.statFuBusy::SimdSha256Hash2              0      0.00%      2.23% # attempts to use FU when none available (Count)
system.cpu.statFuBusy::SimdShaSigma2                0      0.00%      2.23% # attempts to use FU when none available (Count)
system.cpu.statFuBusy::SimdShaSigma3                0      0.00%      2.23% # attempts to use FU when none available (Count)
system.cpu.statFuBusy::SimdPredAlu                  0      0.00%      2.23% # attempts to use FU when none available (Count)
system.cpu.statFuBusy::MemRead               37743029     73.73%     75.97% # attempts to use FU when none available (Count)
system.cpu.statFuBusy::MemWrite              12303044     24.03%    100.00% # attempts to use FU when none available (Count)
system.cpu.statFuBusy::FloatMemRead                 0      0.00%    100.00% # attempts to use FU when none available (Count)
system.cpu.statFuBusy::FloatMemWrite                0      0.00%    100.00% # attempts to use FU when none available (Count)
system.cpu.statFuBusy::IprAccess                    0      0.00%    100.00% # attempts to use FU when none available (Count)
system.cpu.statFuBusy::InstPrefetch                 0      0.00%    100.00% # attempts to use FU when none available (Count)
system.cpu.statIssuedInstType_0::No_OpClass           82      0.00%      0.00% # Number of instructions issued per FU type, per thread (Count)
system.cpu.statIssuedInstType_0::IntAlu     829761125     57.68%     57.68% # Number of instructions issued per FU type, per thread (Count)
system.cpu.statIssuedInstType_0::IntMult      2715057      0.19%     57.87% # Number of instructions issued per FU type, per thread (Count)
system.cpu.statIssuedInstType_0::IntDiv             0      0.00%     57.87% # Number of instructions issued per FU type, per thread (Count)
system.cpu.statIssuedInstType_0::FloatAdd            0      0.00%     57.87% # Number of instructions issued per FU type, per thread (Count)
system.cpu.statIssuedInstType_0::FloatCmp            0      0.00%     57.87% # Number of instructions issued per FU type, per thread (Count)
system.cpu.statIssuedInstType_0::FloatCvt            0      0.00%     57.87% # Number of instructions issued per FU type, per thread (Count)
system.cpu.statIssuedInstType_0::FloatMult            0      0.00%     57.87% # Number of instructions issued per FU type, per thread (Count)
system.cpu.statIssuedInstType_0::FloatMultAcc            0      0.00%     57.87% # Number of instructions issued per FU type, per thread (Count)
system.cpu.statIssuedInstType_0::FloatDiv            0      0.00%     57.87% # Number of instructions issued per FU type, per thread (Count)
system.cpu.statIssuedInstType_0::FloatMisc            0      0.00%     57.87% # Number of instructions issued per FU type, per thread (Count)
system.cpu.statIssuedInstType_0::FloatSqrt            0      0.00%     57.87% # Number of instructions issued per FU type, per thread (Count)
system.cpu.statIssuedInstType_0::SimdAdd            0      0.00%     57.87% # Number of instructions issued per FU type, per thread (Count)
system.cpu.statIssuedInstType_0::SimdAddAcc            0      0.00%     57.87% # Number of instructions issued per FU type, per thread (Count)
system.cpu.statIssuedInstType_0::SimdAlu            0      0.00%     57.87% # Number of instructions issued per FU type, per thread (Count)
system.cpu.statIssuedInstType_0::SimdCmp            0      0.00%     57.87% # Number of instructions issued per FU type, per thread (Count)
system.cpu.statIssuedInstType_0::SimdCvt            0      0.00%     57.87% # Number of instructions issued per FU type, per thread (Count)
system.cpu.statIssuedInstType_0::SimdMisc            0      0.00%     57.87% # Number of instructions issued per FU type, per thread (Count)
system.cpu.statIssuedInstType_0::SimdMult            0      0.00%     57.87% # Number of instructions issued per FU type, per thread (Count)
system.cpu.statIssuedInstType_0::SimdMultAcc            0      0.00%     57.87% # Number of instructions issued per FU type, per thread (Count)
system.cpu.statIssuedInstType_0::SimdShift            0      0.00%     57.87% # Number of instructions issued per FU type, per thread (Count)
system.cpu.statIssuedInstType_0::SimdShiftAcc            0      0.00%     57.87% # Number of instructions issued per FU type, per thread (Count)
system.cpu.statIssuedInstType_0::SimdDiv            0      0.00%     57.87% # Number of instructions issued per FU type, per thread (Count)
system.cpu.statIssuedInstType_0::SimdSqrt            0      0.00%     57.87% # Number of instructions issued per FU type, per thread (Count)
system.cpu.statIssuedInstType_0::SimdFloatAdd            0      0.00%     57.87% # Number of instructions issued per FU type, per thread (Count)
system.cpu.statIssuedInstType_0::SimdFloatAlu            0      0.00%     57.87% # Number of instructions issued per FU type, per thread (Count)
system.cpu.statIssuedInstType_0::SimdFloatCmp            0      0.00%     57.87% # Number of instructions issued per FU type, per thread (Count)
system.cpu.statIssuedInstType_0::SimdFloatCvt            0      0.00%     57.87% # Number of instructions issued per FU type, per thread (Count)
system.cpu.statIssuedInstType_0::SimdFloatDiv            0      0.00%     57.87% # Number of instructions issued per FU type, per thread (Count)
system.cpu.statIssuedInstType_0::SimdFloatMisc            3      0.00%     57.87% # Number of instructions issued per FU type, per thread (Count)
system.cpu.statIssuedInstType_0::SimdFloatMult            0      0.00%     57.87% # Number of instructions issued per FU type, per thread (Count)
system.cpu.statIssuedInstType_0::SimdFloatMultAcc            0      0.00%     57.87% # Number of instructions issued per FU type, per thread (Count)
system.cpu.statIssuedInstType_0::SimdFloatSqrt            0      0.00%     57.87% # Number of instructions issued per FU type, per thread (Count)
system.cpu.statIssuedInstType_0::SimdReduceAdd            0      0.00%     57.87% # Number of instructions issued per FU type, per thread (Count)
system.cpu.statIssuedInstType_0::SimdReduceAlu            0      0.00%     57.87% # Number of instructions issued per FU type, per thread (Count)
system.cpu.statIssuedInstType_0::SimdReduceCmp            0      0.00%     57.87% # Number of instructions issued per FU type, per thread (Count)
system.cpu.statIssuedInstType_0::SimdFloatReduceAdd            0      0.00%     57.87% # Number of instructions issued per FU type, per thread (Count)
system.cpu.statIssuedInstType_0::SimdFloatReduceCmp            0      0.00%     57.87% # Number of instructions issued per FU type, per thread (Count)
system.cpu.statIssuedInstType_0::SimdAes            0      0.00%     57.87% # Number of instructions issued per FU type, per thread (Count)
system.cpu.statIssuedInstType_0::SimdAesMix            0      0.00%     57.87% # Number of instructions issued per FU type, per thread (Count)
system.cpu.statIssuedInstType_0::SimdSha1Hash            0      0.00%     57.87% # Number of instructions issued per FU type, per thread (Count)
system.cpu.statIssuedInstType_0::SimdSha1Hash2            0      0.00%     57.87% # Number of instructions issued per FU type, per thread (Count)
system.cpu.statIssuedInstType_0::SimdSha256Hash            0      0.00%     57.87% # Number of instructions issued per FU type, per thread (Count)
system.cpu.statIssuedInstType_0::SimdSha256Hash2            0      0.00%     57.87% # Number of instructions issued per FU type, per thread (Count)
system.cpu.statIssuedInstType_0::SimdShaSigma2            0      0.00%     57.87% # Number of instructions issued per FU type, per thread (Count)
system.cpu.statIssuedInstType_0::SimdShaSigma3            0      0.00%     57.87% # Number of instructions issued per FU type, per thread (Count)
system.cpu.statIssuedInstType_0::SimdPredAlu            0      0.00%     57.87% # Number of instructions issued per FU type, per thread (Count)
system.cpu.statIssuedInstType_0::MemRead    474363610     32.98%     90.85% # Number of instructions issued per FU type, per thread (Count)
system.cpu.statIssuedInstType_0::MemWrite    131696176      9.15%    100.00% # Number of instructions issued per FU type, per thread (Count)
system.cpu.statIssuedInstType_0::FloatMemRead            0      0.00%    100.00% # Number of instructions issued per FU type, per thread (Count)
system.cpu.statIssuedInstType_0::FloatMemWrite            0      0.00%    100.00% # Number of instructions issued per FU type, per thread (Count)
system.cpu.statIssuedInstType_0::IprAccess            0      0.00%    100.00% # Number of instructions issued per FU type, per thread (Count)
system.cpu.statIssuedInstType_0::InstPrefetch            0      0.00%    100.00% # Number of instructions issued per FU type, per thread (Count)
system.cpu.statIssuedInstType_0::total     1438536053                       # Number of instructions issued per FU type, per thread (Count)
system.cpu.issueRate                         0.197748                       # Inst issue rate ((Count/Cycle))
system.cpu.fuBusy                            51189500                       # FU busy when requested (Count)
system.cpu.fuBusyRate                        0.035584                       # FU busy rate (busy events/executed inst) ((Count/Count))
system.cpu.intInstQueueReads              10214533773                       # Number of integer instruction queue reads (Count)
system.cpu.intInstQueueWrites              1780053734                       # Number of integer instruction queue writes (Count)
system.cpu.intInstQueueWakeupAccesses      1243403018                       # Number of integer instruction queue wakeup accesses (Count)
system.cpu.fpInstQueueReads                         0                       # Number of floating instruction queue reads (Count)
system.cpu.fpInstQueueWrites                        0                       # Number of floating instruction queue writes (Count)
system.cpu.fpInstQueueWakeupAccesses                0                       # Number of floating instruction queue wakeup accesses (Count)
system.cpu.vecInstQueueReads                        0                       # Number of vector instruction queue reads (Count)
system.cpu.vecInstQueueWrites                       0                       # Number of vector instruction queue writes (Count)
system.cpu.vecInstQueueWakeupAccesses               0                       # Number of vector instruction queue wakeup accesses (Count)
system.cpu.intAluAccesses                  1489725471                       # Number of integer alu accesses (Count)
system.cpu.fpAluAccesses                            0                       # Number of floating point alu accesses (Count)
system.cpu.vecAluAccesses                           0                       # Number of vector alu accesses (Count)
system.cpu.numInsts                        1426900098                       # Number of executed instructions (Count)
system.cpu.numLoadInsts                     470069755                       # Number of load instructions executed (Count)
system.cpu.numSquashedInsts                  11635955                       # Number of squashed instructions skipped in execute (Count)
system.cpu.numSwp                                   0                       # Number of swp insts executed (Count)
system.cpu.numNop                                  29                       # Number of nop insts executed (Count)
system.cpu.numRefs                          600106637                       # Number of memory reference insts executed (Count)
system.cpu.numBranches                      269692158                       # Number of branches executed (Count)
system.cpu.numStoreInsts                    130036882                       # Number of stores executed (Count)
system.cpu.numRate                           0.196149                       # Inst execution rate ((Count/Cycle))
system.cpu.timesIdled                             464                       # Number of times that the entire CPU went into an idle state and unscheduled itself (Count)
system.cpu.idleCycles                          178463                       # Total number of cycles that the CPU has spent unscheduled due to idling (Cycle)
system.cpu.committedInsts                  1000000000                       # Number of Instructions Simulated (Count)
system.cpu.committedOps                    1084388561                       # Number of Ops (including micro ops) Simulated (Count)
system.cpu.cpi                               7.274581                       # CPI: Cycles Per Instruction ((Cycle/Count))
system.cpu.totalCpi                          7.274581                       # CPI: Total CPI of All Threads ((Cycle/Count))
system.cpu.ipc                               0.137465                       # IPC: Instructions Per Cycle ((Count/Cycle))
system.cpu.totalIpc                          0.137465                       # IPC: Total IPC of All Threads ((Count/Cycle))
system.cpu.intRegfileReads                 1455148984                       # Number of integer regfile reads (Count)
system.cpu.intRegfileWrites                 652935255                       # Number of integer regfile writes (Count)
system.cpu.vecRegfileReads                         32                       # number of vector regfile reads (Count)
system.cpu.ccRegfileReads                  5099157946                       # number of cc regfile reads (Count)
system.cpu.ccRegfileWrites                  839890199                       # number of cc regfile writes (Count)
system.cpu.miscRegfileReads                 429978214                       # number of misc regfile reads (Count)
system.cpu.miscRegfileWrites                  5052022                       # number of misc regfile writes (Count)
system.cpu.MemDepUnit__0.insertedLoads      349178070                       # Number of loads inserted to the mem dependence unit. (Count)
system.cpu.MemDepUnit__0.insertedStores     144041958                       # Number of stores inserted to the mem dependence unit. (Count)
system.cpu.MemDepUnit__0.conflictingLoads     47871781                       # Number of conflicting loads. (Count)
system.cpu.MemDepUnit__0.conflictingStores     34735693                       # Number of conflicting stores. (Count)
system.cpu.MemDepUnit__1.insertedLoads              0                       # Number of loads inserted to the mem dependence unit. (Count)
system.cpu.MemDepUnit__1.insertedStores             0                       # Number of stores inserted to the mem dependence unit. (Count)
system.cpu.MemDepUnit__1.conflictingLoads            0                       # Number of conflicting loads. (Count)
system.cpu.MemDepUnit__1.conflictingStores            0                       # Number of conflicting stores. (Count)
system.cpu.MemDepUnit__2.insertedLoads              0                       # Number of loads inserted to the mem dependence unit. (Count)
system.cpu.MemDepUnit__2.insertedStores             0                       # Number of stores inserted to the mem dependence unit. (Count)
system.cpu.MemDepUnit__2.conflictingLoads            0                       # Number of conflicting loads. (Count)
system.cpu.MemDepUnit__2.conflictingStores            0                       # Number of conflicting stores. (Count)
system.cpu.MemDepUnit__3.insertedLoads              0                       # Number of loads inserted to the mem dependence unit. (Count)
system.cpu.MemDepUnit__3.insertedStores             0                       # Number of stores inserted to the mem dependence unit. (Count)
system.cpu.MemDepUnit__3.conflictingLoads            0                       # Number of conflicting loads. (Count)
system.cpu.MemDepUnit__3.conflictingStores            0                       # Number of conflicting stores. (Count)
system.cpu.branchPred.lookups               358160950                       # Number of BP lookups (Count)
system.cpu.branchPred.condPredicted         303059866                       # Number of conditional branches predicted (Count)
system.cpu.branchPred.condIncorrect          10445457                       # Number of conditional branches incorrect (Count)
system.cpu.branchPred.BTBLookups            154017134                       # Number of BTB lookups (Count)
system.cpu.branchPred.BTBHits               150327335                       # Number of BTB hits (Count)
system.cpu.branchPred.BTBHitRatio            0.976043                       # BTB Hit Ratio (Ratio)
system.cpu.branchPred.RASUsed                10739913                       # Number of times the RAS was used to get a target. (Count)
system.cpu.branchPred.RASIncorrect                 84                       # Number of incorrect RAS predictions. (Count)
system.cpu.branchPred.indirectLookups         2551768                       # Number of indirect predictor lookups. (Count)
system.cpu.branchPred.indirectHits            1338572                       # Number of indirect target hits. (Count)
system.cpu.branchPred.indirectMisses          1213196                       # Number of indirect misses. (Count)
system.cpu.branchPred.indirectMispredicted         9089                       # Number of mispredicted indirect branches. (Count)
system.cpu.commit.commitSquashedInsts       348647702                       # The number of squashed insts skipped by commit (Count)
system.cpu.commit.commitNonSpecStalls         3789440                       # The number of times commit has been forced to stall to communicate backwards (Count)
system.cpu.commit.branchMispredicts           8385636                       # The number of times a branch was mispredicted (Count)
system.cpu.commit.numCommittedDist::samples   7223248869                       # Number of insts commited each cycle (Count)
system.cpu.commit.numCommittedDist::mean     0.150125                       # Number of insts commited each cycle (Count)
system.cpu.commit.numCommittedDist::stdev     0.873449                       # Number of insts commited each cycle (Count)
system.cpu.commit.numCommittedDist::underflows            0      0.00%      0.00% # Number of insts commited each cycle (Count)
system.cpu.commit.numCommittedDist::0      6862839276     95.01%     95.01% # Number of insts commited each cycle (Count)
system.cpu.commit.numCommittedDist::1       168293239      2.33%     97.34% # Number of insts commited each cycle (Count)
system.cpu.commit.numCommittedDist::2        57194057      0.79%     98.13% # Number of insts commited each cycle (Count)
system.cpu.commit.numCommittedDist::3        21156420      0.29%     98.43% # Number of insts commited each cycle (Count)
system.cpu.commit.numCommittedDist::4        20801310      0.29%     98.71% # Number of insts commited each cycle (Count)
system.cpu.commit.numCommittedDist::5        19464966      0.27%     98.98% # Number of insts commited each cycle (Count)
system.cpu.commit.numCommittedDist::6         8468201      0.12%     99.10% # Number of insts commited each cycle (Count)
system.cpu.commit.numCommittedDist::7        13352527      0.18%     99.28% # Number of insts commited each cycle (Count)
system.cpu.commit.numCommittedDist::8        51678873      0.72%    100.00% # Number of insts commited each cycle (Count)
system.cpu.commit.numCommittedDist::overflows            0      0.00%    100.00% # Number of insts commited each cycle (Count)
system.cpu.commit.numCommittedDist::min_value            0                       # Number of insts commited each cycle (Count)
system.cpu.commit.numCommittedDist::max_value            8                       # Number of insts commited each cycle (Count)
system.cpu.commit.numCommittedDist::total   7223248869                       # Number of insts commited each cycle (Count)
system.cpu.commit.instsCommitted           1000000001                       # Number of instructions committed (Count)
system.cpu.commit.opsCommitted             1084388562                       # Number of ops (including micro ops) committed (Count)
system.cpu.commit.memRefs                   371594264                       # Number of memory references committed (Count)
system.cpu.commit.loads                     257232843                       # Number of loads committed (Count)
system.cpu.commit.amos                              0                       # Number of atomic instructions committed (Count)
system.cpu.commit.membars                     2526011                       # Number of memory barriers committed (Count)
system.cpu.commit.branches                  234516986                       # Number of branches committed (Count)
system.cpu.commit.vectorInstructions                0                       # Number of committed Vector instructions. (Count)
system.cpu.commit.floating                          0                       # Number of committed floating point instructions. (Count)
system.cpu.commit.integer                   857333723                       # Number of committed integer instructions. (Count)
system.cpu.commit.functionCalls               6817153                       # Number of function calls committed. (Count)
system.cpu.commit.committedInstType_0::No_OpClass            0      0.00%      0.00% # Class of committed instruction (Count)
system.cpu.commit.committedInstType_0::IntAlu    710093877     65.48%     65.48% # Class of committed instruction (Count)
system.cpu.commit.committedInstType_0::IntMult      2700418      0.25%     65.73% # Class of committed instruction (Count)
system.cpu.commit.committedInstType_0::IntDiv            0      0.00%     65.73% # Class of committed instruction (Count)
system.cpu.commit.committedInstType_0::FloatAdd            0      0.00%     65.73% # Class of committed instruction (Count)
system.cpu.commit.committedInstType_0::FloatCmp            0      0.00%     65.73% # Class of committed instruction (Count)
system.cpu.commit.committedInstType_0::FloatCvt            0      0.00%     65.73% # Class of committed instruction (Count)
system.cpu.commit.committedInstType_0::FloatMult            0      0.00%     65.73% # Class of committed instruction (Count)
system.cpu.commit.committedInstType_0::FloatMultAcc            0      0.00%     65.73% # Class of committed instruction (Count)
system.cpu.commit.committedInstType_0::FloatDiv            0      0.00%     65.73% # Class of committed instruction (Count)
system.cpu.commit.committedInstType_0::FloatMisc            0      0.00%     65.73% # Class of committed instruction (Count)
system.cpu.commit.committedInstType_0::FloatSqrt            0      0.00%     65.73% # Class of committed instruction (Count)
system.cpu.commit.committedInstType_0::SimdAdd            0      0.00%     65.73% # Class of committed instruction (Count)
system.cpu.commit.committedInstType_0::SimdAddAcc            0      0.00%     65.73% # Class of committed instruction (Count)
system.cpu.commit.committedInstType_0::SimdAlu            0      0.00%     65.73% # Class of committed instruction (Count)
system.cpu.commit.committedInstType_0::SimdCmp            0      0.00%     65.73% # Class of committed instruction (Count)
system.cpu.commit.committedInstType_0::SimdCvt            0      0.00%     65.73% # Class of committed instruction (Count)
system.cpu.commit.committedInstType_0::SimdMisc            0      0.00%     65.73% # Class of committed instruction (Count)
system.cpu.commit.committedInstType_0::SimdMult            0      0.00%     65.73% # Class of committed instruction (Count)
system.cpu.commit.committedInstType_0::SimdMultAcc            0      0.00%     65.73% # Class of committed instruction (Count)
system.cpu.commit.committedInstType_0::SimdShift            0      0.00%     65.73% # Class of committed instruction (Count)
system.cpu.commit.committedInstType_0::SimdShiftAcc            0      0.00%     65.73% # Class of committed instruction (Count)
system.cpu.commit.committedInstType_0::SimdDiv            0      0.00%     65.73% # Class of committed instruction (Count)
system.cpu.commit.committedInstType_0::SimdSqrt            0      0.00%     65.73% # Class of committed instruction (Count)
system.cpu.commit.committedInstType_0::SimdFloatAdd            0      0.00%     65.73% # Class of committed instruction (Count)
system.cpu.commit.committedInstType_0::SimdFloatAlu            0      0.00%     65.73% # Class of committed instruction (Count)
system.cpu.commit.committedInstType_0::SimdFloatCmp            0      0.00%     65.73% # Class of committed instruction (Count)
system.cpu.commit.committedInstType_0::SimdFloatCvt            0      0.00%     65.73% # Class of committed instruction (Count)
system.cpu.commit.committedInstType_0::SimdFloatDiv            0      0.00%     65.73% # Class of committed instruction (Count)
system.cpu.commit.committedInstType_0::SimdFloatMisc            3      0.00%     65.73% # Class of committed instruction (Count)
system.cpu.commit.committedInstType_0::SimdFloatMult            0      0.00%     65.73% # Class of committed instruction (Count)
system.cpu.commit.committedInstType_0::SimdFloatMultAcc            0      0.00%     65.73% # Class of committed instruction (Count)
system.cpu.commit.committedInstType_0::SimdFloatSqrt            0      0.00%     65.73% # Class of committed instruction (Count)
system.cpu.commit.committedInstType_0::SimdReduceAdd            0      0.00%     65.73% # Class of committed instruction (Count)
system.cpu.commit.committedInstType_0::SimdReduceAlu            0      0.00%     65.73% # Class of committed instruction (Count)
system.cpu.commit.committedInstType_0::SimdReduceCmp            0      0.00%     65.73% # Class of committed instruction (Count)
system.cpu.commit.committedInstType_0::SimdFloatReduceAdd            0      0.00%     65.73% # Class of committed instruction (Count)
system.cpu.commit.committedInstType_0::SimdFloatReduceCmp            0      0.00%     65.73% # Class of committed instruction (Count)
system.cpu.commit.committedInstType_0::SimdAes            0      0.00%     65.73% # Class of committed instruction (Count)
system.cpu.commit.committedInstType_0::SimdAesMix            0      0.00%     65.73% # Class of committed instruction (Count)
system.cpu.commit.committedInstType_0::SimdSha1Hash            0      0.00%     65.73% # Class of committed instruction (Count)
system.cpu.commit.committedInstType_0::SimdSha1Hash2            0      0.00%     65.73% # Class of committed instruction (Count)
system.cpu.commit.committedInstType_0::SimdSha256Hash            0      0.00%     65.73% # Class of committed instruction (Count)
system.cpu.commit.committedInstType_0::SimdSha256Hash2            0      0.00%     65.73% # Class of committed instruction (Count)
system.cpu.commit.committedInstType_0::SimdShaSigma2            0      0.00%     65.73% # Class of committed instruction (Count)
system.cpu.commit.committedInstType_0::SimdShaSigma3            0      0.00%     65.73% # Class of committed instruction (Count)
system.cpu.commit.committedInstType_0::SimdPredAlu            0      0.00%     65.73% # Class of committed instruction (Count)
system.cpu.commit.committedInstType_0::MemRead    257232843     23.72%     89.45% # Class of committed instruction (Count)
system.cpu.commit.committedInstType_0::MemWrite    114361421     10.55%    100.00% # Class of committed instruction (Count)
system.cpu.commit.committedInstType_0::FloatMemRead            0      0.00%    100.00% # Class of committed instruction (Count)
system.cpu.commit.committedInstType_0::FloatMemWrite            0      0.00%    100.00% # Class of committed instruction (Count)
system.cpu.commit.committedInstType_0::IprAccess            0      0.00%    100.00% # Class of committed instruction (Count)
system.cpu.commit.committedInstType_0::InstPrefetch            0      0.00%    100.00% # Class of committed instruction (Count)
system.cpu.commit.committedInstType_0::total   1084388562                       # Class of committed instruction (Count)
system.cpu.commit.commitEligibleSamples      51678873                       # number cycles where commit BW limit reached (Cycle)
system.cpu.dcache.demandHits::cpu.data      328833379                       # number of demand (read+write) hits (Count)
system.cpu.dcache.demandHits::total         328833379                       # number of demand (read+write) hits (Count)
system.cpu.dcache.overallHits::cpu.data     329052208                       # number of overall hits (Count)
system.cpu.dcache.overallHits::total        329052208                       # number of overall hits (Count)
system.cpu.dcache.demandMisses::cpu.data     71017844                       # number of demand (read+write) misses (Count)
system.cpu.dcache.demandMisses::total        71017844                       # number of demand (read+write) misses (Count)
system.cpu.dcache.overallMisses::cpu.data     71021074                       # number of overall misses (Count)
system.cpu.dcache.overallMisses::total       71021074                       # number of overall misses (Count)
system.cpu.dcache.demandMissLatency::cpu.data 3209190011910                       # number of demand (read+write) miss ticks (Tick)
system.cpu.dcache.demandMissLatency::total 3209190011910                       # number of demand (read+write) miss ticks (Tick)
system.cpu.dcache.overallMissLatency::cpu.data 3209190011910                       # number of overall miss ticks (Tick)
system.cpu.dcache.overallMissLatency::total 3209190011910                       # number of overall miss ticks (Tick)
system.cpu.dcache.demandAccesses::cpu.data    399851223                       # number of demand (read+write) accesses (Count)
system.cpu.dcache.demandAccesses::total     399851223                       # number of demand (read+write) accesses (Count)
system.cpu.dcache.overallAccesses::cpu.data    400073282                       # number of overall (read+write) accesses (Count)
system.cpu.dcache.overallAccesses::total    400073282                       # number of overall (read+write) accesses (Count)
system.cpu.dcache.demandMissRate::cpu.data     0.177611                       # miss rate for demand accesses (Ratio)
system.cpu.dcache.demandMissRate::total      0.177611                       # miss rate for demand accesses (Ratio)
system.cpu.dcache.overallMissRate::cpu.data     0.177520                       # miss rate for overall accesses (Ratio)
system.cpu.dcache.overallMissRate::total     0.177520                       # miss rate for overall accesses (Ratio)
system.cpu.dcache.demandAvgMissLatency::cpu.data 45188.502370                       # average overall miss latency in ticks ((Tick/Count))
system.cpu.dcache.demandAvgMissLatency::total 45188.502370                       # average overall miss latency in ticks ((Tick/Count))
system.cpu.dcache.overallAvgMissLatency::cpu.data 45186.447221                       # average overall miss latency ((Tick/Count))
system.cpu.dcache.overallAvgMissLatency::total 45186.447221                       # average overall miss latency ((Tick/Count))
system.cpu.dcache.blockedCycles::no_mshrs   1429828608                       # number of cycles access was blocked (Cycle)
system.cpu.dcache.blockedCycles::no_targets      1248058                       # number of cycles access was blocked (Cycle)
system.cpu.dcache.blockedCauses::no_mshrs     17685645                       # number of times access was blocked (Count)
system.cpu.dcache.blockedCauses::no_targets        12808                       # number of times access was blocked (Count)
system.cpu.dcache.avgBlocked::no_mshrs      80.846845                       # average number of cycles each access was blocked ((Cycle/Count))
system.cpu.dcache.avgBlocked::no_targets    97.443629                       # average number of cycles each access was blocked ((Cycle/Count))
system.cpu.dcache.writebacks::writebacks      9998268                       # number of writebacks (Count)
system.cpu.dcache.writebacks::total           9998268                       # number of writebacks (Count)
system.cpu.dcache.demandMshrHits::cpu.data     38519721                       # number of demand (read+write) MSHR hits (Count)
system.cpu.dcache.demandMshrHits::total      38519721                       # number of demand (read+write) MSHR hits (Count)
system.cpu.dcache.overallMshrHits::cpu.data     38519721                       # number of overall MSHR hits (Count)
system.cpu.dcache.overallMshrHits::total     38519721                       # number of overall MSHR hits (Count)
system.cpu.dcache.demandMshrMisses::cpu.data     32498123                       # number of demand (read+write) MSHR misses (Count)
system.cpu.dcache.demandMshrMisses::total     32498123                       # number of demand (read+write) MSHR misses (Count)
system.cpu.dcache.overallMshrMisses::cpu.data     32498430                       # number of overall MSHR misses (Count)
system.cpu.dcache.overallMshrMisses::total     32498430                       # number of overall MSHR misses (Count)
system.cpu.dcache.demandMshrMissLatency::cpu.data 1468216504080                       # number of demand (read+write) MSHR miss ticks (Tick)
system.cpu.dcache.demandMshrMissLatency::total 1468216504080                       # number of demand (read+write) MSHR miss ticks (Tick)
system.cpu.dcache.overallMshrMissLatency::cpu.data 1468220583205                       # number of overall MSHR miss ticks (Tick)
system.cpu.dcache.overallMshrMissLatency::total 1468220583205                       # number of overall MSHR miss ticks (Tick)
system.cpu.dcache.demandMshrMissRate::cpu.data     0.081276                       # mshr miss ratio for demand accesses (Ratio)
system.cpu.dcache.demandMshrMissRate::total     0.081276                       # mshr miss ratio for demand accesses (Ratio)
system.cpu.dcache.overallMshrMissRate::cpu.data     0.081231                       # mshr miss ratio for overall accesses (Ratio)
system.cpu.dcache.overallMshrMissRate::total     0.081231                       # mshr miss ratio for overall accesses (Ratio)
system.cpu.dcache.demandAvgMshrMissLatency::cpu.data 45178.501665                       # average overall mshr miss latency ((Tick/Count))
system.cpu.dcache.demandAvgMshrMissLatency::total 45178.501665                       # average overall mshr miss latency ((Tick/Count))
system.cpu.dcache.overallAvgMshrMissLatency::cpu.data 45178.200399                       # average overall mshr miss latency ((Tick/Count))
system.cpu.dcache.overallAvgMshrMissLatency::total 45178.200399                       # average overall mshr miss latency ((Tick/Count))
system.cpu.dcache.replacements               32497910                       # number of replacements (Count)
system.cpu.dcache.LoadLockedReq.hits::cpu.data      1263003                       # number of LoadLockedReq hits (Count)
system.cpu.dcache.LoadLockedReq.hits::total      1263003                       # number of LoadLockedReq hits (Count)
system.cpu.dcache.LoadLockedReq.misses::cpu.data            2                       # number of LoadLockedReq misses (Count)
system.cpu.dcache.LoadLockedReq.misses::total            2                       # number of LoadLockedReq misses (Count)
system.cpu.dcache.LoadLockedReq.missLatency::cpu.data       132125                       # number of LoadLockedReq miss ticks (Tick)
system.cpu.dcache.LoadLockedReq.missLatency::total       132125                       # number of LoadLockedReq miss ticks (Tick)
system.cpu.dcache.LoadLockedReq.accesses::cpu.data      1263005                       # number of LoadLockedReq accesses(hits+misses) (Count)
system.cpu.dcache.LoadLockedReq.accesses::total      1263005                       # number of LoadLockedReq accesses(hits+misses) (Count)
system.cpu.dcache.LoadLockedReq.missRate::cpu.data     0.000002                       # miss rate for LoadLockedReq accesses (Ratio)
system.cpu.dcache.LoadLockedReq.missRate::total     0.000002                       # miss rate for LoadLockedReq accesses (Ratio)
system.cpu.dcache.LoadLockedReq.avgMissLatency::cpu.data 66062.500000                       # average LoadLockedReq miss latency ((Tick/Count))
system.cpu.dcache.LoadLockedReq.avgMissLatency::total 66062.500000                       # average LoadLockedReq miss latency ((Tick/Count))
system.cpu.dcache.LoadLockedReq.mshrMisses::cpu.data            2                       # number of LoadLockedReq MSHR misses (Count)
system.cpu.dcache.LoadLockedReq.mshrMisses::total            2                       # number of LoadLockedReq MSHR misses (Count)
system.cpu.dcache.LoadLockedReq.mshrMissLatency::cpu.data       131625                       # number of LoadLockedReq MSHR miss ticks (Tick)
system.cpu.dcache.LoadLockedReq.mshrMissLatency::total       131625                       # number of LoadLockedReq MSHR miss ticks (Tick)
system.cpu.dcache.LoadLockedReq.mshrMissRate::cpu.data     0.000002                       # mshr miss rate for LoadLockedReq accesses (Ratio)
system.cpu.dcache.LoadLockedReq.mshrMissRate::total     0.000002                       # mshr miss rate for LoadLockedReq accesses (Ratio)
system.cpu.dcache.LoadLockedReq.avgMshrMissLatency::cpu.data 65812.500000                       # average LoadLockedReq mshr miss latency ((Tick/Count))
system.cpu.dcache.LoadLockedReq.avgMshrMissLatency::total 65812.500000                       # average LoadLockedReq mshr miss latency ((Tick/Count))
system.cpu.dcache.ReadReq.hits::cpu.data    221185394                       # number of ReadReq hits (Count)
system.cpu.dcache.ReadReq.hits::total       221185394                       # number of ReadReq hits (Count)
system.cpu.dcache.ReadReq.misses::cpu.data     68306794                       # number of ReadReq misses (Count)
system.cpu.dcache.ReadReq.misses::total      68306794                       # number of ReadReq misses (Count)
system.cpu.dcache.ReadReq.missLatency::cpu.data 3105543676500                       # number of ReadReq miss ticks (Tick)
system.cpu.dcache.ReadReq.missLatency::total 3105543676500                       # number of ReadReq miss ticks (Tick)
system.cpu.dcache.ReadReq.accesses::cpu.data    289492188                       # number of ReadReq accesses(hits+misses) (Count)
system.cpu.dcache.ReadReq.accesses::total    289492188                       # number of ReadReq accesses(hits+misses) (Count)
system.cpu.dcache.ReadReq.missRate::cpu.data     0.235954                       # miss rate for ReadReq accesses (Ratio)
system.cpu.dcache.ReadReq.missRate::total     0.235954                       # miss rate for ReadReq accesses (Ratio)
system.cpu.dcache.ReadReq.avgMissLatency::cpu.data 45464.638210                       # average ReadReq miss latency ((Tick/Count))
system.cpu.dcache.ReadReq.avgMissLatency::total 45464.638210                       # average ReadReq miss latency ((Tick/Count))
system.cpu.dcache.ReadReq.mshrHits::cpu.data     36597018                       # number of ReadReq MSHR hits (Count)
system.cpu.dcache.ReadReq.mshrHits::total     36597018                       # number of ReadReq MSHR hits (Count)
system.cpu.dcache.ReadReq.mshrMisses::cpu.data     31709776                       # number of ReadReq MSHR misses (Count)
system.cpu.dcache.ReadReq.mshrMisses::total     31709776                       # number of ReadReq MSHR misses (Count)
system.cpu.dcache.ReadReq.mshrMissLatency::cpu.data 1434910404750                       # number of ReadReq MSHR miss ticks (Tick)
system.cpu.dcache.ReadReq.mshrMissLatency::total 1434910404750                       # number of ReadReq MSHR miss ticks (Tick)
system.cpu.dcache.ReadReq.mshrMissRate::cpu.data     0.109536                       # mshr miss rate for ReadReq accesses (Ratio)
system.cpu.dcache.ReadReq.mshrMissRate::total     0.109536                       # mshr miss rate for ReadReq accesses (Ratio)
system.cpu.dcache.ReadReq.avgMshrMissLatency::cpu.data 45251.357334                       # average ReadReq mshr miss latency ((Tick/Count))
system.cpu.dcache.ReadReq.avgMshrMissLatency::total 45251.357334                       # average ReadReq mshr miss latency ((Tick/Count))
system.cpu.dcache.SoftPFReq.hits::cpu.data       218829                       # number of SoftPFReq hits (Count)
system.cpu.dcache.SoftPFReq.hits::total        218829                       # number of SoftPFReq hits (Count)
system.cpu.dcache.SoftPFReq.misses::cpu.data         3230                       # number of SoftPFReq misses (Count)
system.cpu.dcache.SoftPFReq.misses::total         3230                       # number of SoftPFReq misses (Count)
system.cpu.dcache.SoftPFReq.accesses::cpu.data       222059                       # number of SoftPFReq accesses(hits+misses) (Count)
system.cpu.dcache.SoftPFReq.accesses::total       222059                       # number of SoftPFReq accesses(hits+misses) (Count)
system.cpu.dcache.SoftPFReq.missRate::cpu.data     0.014546                       # miss rate for SoftPFReq accesses (Ratio)
system.cpu.dcache.SoftPFReq.missRate::total     0.014546                       # miss rate for SoftPFReq accesses (Ratio)
system.cpu.dcache.SoftPFReq.mshrMisses::cpu.data          307                       # number of SoftPFReq MSHR misses (Count)
system.cpu.dcache.SoftPFReq.mshrMisses::total          307                       # number of SoftPFReq MSHR misses (Count)
system.cpu.dcache.SoftPFReq.mshrMissLatency::cpu.data      4079125                       # number of SoftPFReq MSHR miss ticks (Tick)
system.cpu.dcache.SoftPFReq.mshrMissLatency::total      4079125                       # number of SoftPFReq MSHR miss ticks (Tick)
system.cpu.dcache.SoftPFReq.mshrMissRate::cpu.data     0.001383                       # mshr miss rate for SoftPFReq accesses (Ratio)
system.cpu.dcache.SoftPFReq.mshrMissRate::total     0.001383                       # mshr miss rate for SoftPFReq accesses (Ratio)
system.cpu.dcache.SoftPFReq.avgMshrMissLatency::cpu.data 13287.052117                       # average SoftPFReq mshr miss latency ((Tick/Count))
system.cpu.dcache.SoftPFReq.avgMshrMissLatency::total 13287.052117                       # average SoftPFReq mshr miss latency ((Tick/Count))
system.cpu.dcache.StoreCondReq.hits::cpu.data      1263005                       # number of StoreCondReq hits (Count)
system.cpu.dcache.StoreCondReq.hits::total      1263005                       # number of StoreCondReq hits (Count)
system.cpu.dcache.StoreCondReq.accesses::cpu.data      1263005                       # number of StoreCondReq accesses(hits+misses) (Count)
system.cpu.dcache.StoreCondReq.accesses::total      1263005                       # number of StoreCondReq accesses(hits+misses) (Count)
system.cpu.dcache.WriteReq.hits::cpu.data    107647985                       # number of WriteReq hits (Count)
system.cpu.dcache.WriteReq.hits::total      107647985                       # number of WriteReq hits (Count)
system.cpu.dcache.WriteReq.misses::cpu.data      2711050                       # number of WriteReq misses (Count)
system.cpu.dcache.WriteReq.misses::total      2711050                       # number of WriteReq misses (Count)
system.cpu.dcache.WriteReq.missLatency::cpu.data 103646335410                       # number of WriteReq miss ticks (Tick)
system.cpu.dcache.WriteReq.missLatency::total 103646335410                       # number of WriteReq miss ticks (Tick)
system.cpu.dcache.WriteReq.accesses::cpu.data    110359035                       # number of WriteReq accesses(hits+misses) (Count)
system.cpu.dcache.WriteReq.accesses::total    110359035                       # number of WriteReq accesses(hits+misses) (Count)
system.cpu.dcache.WriteReq.missRate::cpu.data     0.024566                       # miss rate for WriteReq accesses (Ratio)
system.cpu.dcache.WriteReq.missRate::total     0.024566                       # miss rate for WriteReq accesses (Ratio)
system.cpu.dcache.WriteReq.avgMissLatency::cpu.data 38231.067450                       # average WriteReq miss latency ((Tick/Count))
system.cpu.dcache.WriteReq.avgMissLatency::total 38231.067450                       # average WriteReq miss latency ((Tick/Count))
system.cpu.dcache.WriteReq.mshrHits::cpu.data      1922703                       # number of WriteReq MSHR hits (Count)
system.cpu.dcache.WriteReq.mshrHits::total      1922703                       # number of WriteReq MSHR hits (Count)
system.cpu.dcache.WriteReq.mshrMisses::cpu.data       788347                       # number of WriteReq MSHR misses (Count)
system.cpu.dcache.WriteReq.mshrMisses::total       788347                       # number of WriteReq MSHR misses (Count)
system.cpu.dcache.WriteReq.mshrMissLatency::cpu.data  33306099330                       # number of WriteReq MSHR miss ticks (Tick)
system.cpu.dcache.WriteReq.mshrMissLatency::total  33306099330                       # number of WriteReq MSHR miss ticks (Tick)
system.cpu.dcache.WriteReq.mshrMissRate::cpu.data     0.007143                       # mshr miss rate for WriteReq accesses (Ratio)
system.cpu.dcache.WriteReq.mshrMissRate::total     0.007143                       # mshr miss rate for WriteReq accesses (Ratio)
system.cpu.dcache.WriteReq.avgMshrMissLatency::cpu.data 42248.019375                       # average WriteReq mshr miss latency ((Tick/Count))
system.cpu.dcache.WriteReq.avgMshrMissLatency::total 42248.019375                       # average WriteReq mshr miss latency ((Tick/Count))
system.cpu.dcache.power_state.pwrStateResidencyTicks::UNDEFINED 909322670125                       # Cumulative time (in ticks) in various power states (Tick)
system.cpu.dcache.tags.tagsInUse           511.984855                       # Average ticks per tags in use ((Tick/Count))
system.cpu.dcache.tags.totalRefs            364076729                       # Total number of references to valid blocks. (Count)
system.cpu.dcache.tags.sampledRefs           32498422                       # Sample count of references to valid blocks. (Count)
system.cpu.dcache.tags.avgRefs              11.202905                       # Average number of references to valid blocks. ((Count/Count))
system.cpu.dcache.tags.warmupTick               96000                       # The tick when the warmup percentage was hit. (Tick)
system.cpu.dcache.tags.occupancies::cpu.data   511.984855                       # Average occupied blocks per tick, per requestor ((Count/Tick))
system.cpu.dcache.tags.avgOccs::cpu.data     0.999970                       # Average percentage of cache occupancy ((Ratio/Tick))
system.cpu.dcache.tags.avgOccs::total        0.999970                       # Average percentage of cache occupancy ((Ratio/Tick))
system.cpu.dcache.tags.occupanciesTaskId::1024          512                       # Occupied blocks per task id (Count)
system.cpu.dcache.tags.ageTaskId_1024::0          157                       # Occupied blocks per task id, per block age (Count)
system.cpu.dcache.tags.ageTaskId_1024::1          354                       # Occupied blocks per task id, per block age (Count)
system.cpu.dcache.tags.ageTaskId_1024::3            1                       # Occupied blocks per task id, per block age (Count)
system.cpu.dcache.tags.ratioOccsTaskId::1024            1                       # Ratio of occupied blocks and all blocks, per task id (Ratio)
system.cpu.dcache.tags.tagAccesses         1642895590                       # Number of tag accesses (Count)
system.cpu.dcache.tags.dataAccesses        1642895590                       # Number of data accesses (Count)
system.cpu.dcache.tags.power_state.pwrStateResidencyTicks::UNDEFINED 909322670125                       # Cumulative time (in ticks) in various power states (Tick)
system.cpu.decode.idleCycles                137391151                       # Number of cycles decode is idle (Cycle)
system.cpu.decode.blockedCycles            6877671668                       # Number of cycles decode is blocked (Cycle)
system.cpu.decode.runCycles                 205438221                       # Number of cycles decode is running (Cycle)
system.cpu.decode.unblockCycles              44649509                       # Number of cycles decode is unblocking (Cycle)
system.cpu.decode.squashCycles                9252350                       # Number of cycles decode is squashing (Cycle)
system.cpu.decode.branchResolved            140780830                       # Number of times decode resolved a branch (Count)
system.cpu.decode.branchMispred               2064103                       # Number of times decode detected a branch misprediction (Count)
system.cpu.decode.decodedInsts             1526781076                       # Number of instructions handled by decode (Count)
system.cpu.decode.squashedInsts               3620933                       # Number of squashed instructions handled by decode (Count)
system.cpu.fetch.icacheStallCycles          190870891                       # Number of cycles fetch is stalled on an Icache miss (Cycle)
system.cpu.fetch.insts                     1553084473                       # Number of instructions fetch has processed (Count)
system.cpu.fetch.branches                   358160950                       # Number of branches that fetch encountered (Count)
system.cpu.fetch.predictedBranches          162405820                       # Number of branches that fetch has predicted taken (Count)
system.cpu.fetch.cycles                    7072218837                       # Number of cycles fetch has run and was not squashing or blocked (Cycle)
system.cpu.fetch.squashCycles                22624498                       # Number of cycles fetch has spent squashing (Cycle)
system.cpu.fetch.miscStallCycles                  299                       # Number of cycles fetch has spent waiting on interrupts, or bad addresses, or out of MSHRs (Cycle)
system.cpu.fetch.pendingTrapStallCycles           503                       # Number of stall cycles due to pending traps (Cycle)
system.cpu.fetch.icacheWaitRetryStallCycles          120                       # Number of stall cycles due to full MSHR (Cycle)
system.cpu.fetch.cacheLines                 185299293                       # Number of cache lines fetched (Count)
system.cpu.fetch.icacheSquashes               3227743                       # Number of outstanding Icache misses that were squashed (Count)
system.cpu.fetch.nisnDist::samples         7274402899                       # Number of instructions fetched each cycle (Total) (Count)
system.cpu.fetch.nisnDist::mean              0.229674                       # Number of instructions fetched each cycle (Total) (Count)
system.cpu.fetch.nisnDist::stdev             1.187275                       # Number of instructions fetched each cycle (Total) (Count)
system.cpu.fetch.nisnDist::underflows               0      0.00%      0.00% # Number of instructions fetched each cycle (Total) (Count)
system.cpu.fetch.nisnDist::0               6951602920     95.56%     95.56% # Number of instructions fetched each cycle (Total) (Count)
system.cpu.fetch.nisnDist::1                 19347494      0.27%     95.83% # Number of instructions fetched each cycle (Total) (Count)
system.cpu.fetch.nisnDist::2                 48768183      0.67%     96.50% # Number of instructions fetched each cycle (Total) (Count)
system.cpu.fetch.nisnDist::3                 40049341      0.55%     97.05% # Number of instructions fetched each cycle (Total) (Count)
system.cpu.fetch.nisnDist::4                 30016362      0.41%     97.46% # Number of instructions fetched each cycle (Total) (Count)
system.cpu.fetch.nisnDist::5                 22783063      0.31%     97.78% # Number of instructions fetched each cycle (Total) (Count)
system.cpu.fetch.nisnDist::6                 40030307      0.55%     98.33% # Number of instructions fetched each cycle (Total) (Count)
system.cpu.fetch.nisnDist::7                 14896444      0.20%     98.53% # Number of instructions fetched each cycle (Total) (Count)
system.cpu.fetch.nisnDist::8                106908785      1.47%    100.00% # Number of instructions fetched each cycle (Total) (Count)
system.cpu.fetch.nisnDist::overflows                0      0.00%    100.00% # Number of instructions fetched each cycle (Total) (Count)
system.cpu.fetch.nisnDist::min_value                0                       # Number of instructions fetched each cycle (Total) (Count)
system.cpu.fetch.nisnDist::max_value                8                       # Number of instructions fetched each cycle (Total) (Count)
system.cpu.fetch.nisnDist::total           7274402899                       # Number of instructions fetched each cycle (Total) (Count)
system.cpu.fetch.branchRate                  0.049235                       # Number of branch fetches per cycle (Ratio)
system.cpu.fetch.rate                        0.213495                       # Number of inst fetches per cycle ((Count/Cycle))
system.cpu.icache.demandHits::cpu.inst      185298528                       # number of demand (read+write) hits (Count)
system.cpu.icache.demandHits::total         185298528                       # number of demand (read+write) hits (Count)
system.cpu.icache.overallHits::cpu.inst     185298528                       # number of overall hits (Count)
system.cpu.icache.overallHits::total        185298528                       # number of overall hits (Count)
system.cpu.icache.demandMisses::cpu.inst          764                       # number of demand (read+write) misses (Count)
system.cpu.icache.demandMisses::total             764                       # number of demand (read+write) misses (Count)
system.cpu.icache.overallMisses::cpu.inst          764                       # number of overall misses (Count)
system.cpu.icache.overallMisses::total            764                       # number of overall misses (Count)
system.cpu.icache.demandMissLatency::cpu.inst     53840249                       # number of demand (read+write) miss ticks (Tick)
system.cpu.icache.demandMissLatency::total     53840249                       # number of demand (read+write) miss ticks (Tick)
system.cpu.icache.overallMissLatency::cpu.inst     53840249                       # number of overall miss ticks (Tick)
system.cpu.icache.overallMissLatency::total     53840249                       # number of overall miss ticks (Tick)
system.cpu.icache.demandAccesses::cpu.inst    185299292                       # number of demand (read+write) accesses (Count)
system.cpu.icache.demandAccesses::total     185299292                       # number of demand (read+write) accesses (Count)
system.cpu.icache.overallAccesses::cpu.inst    185299292                       # number of overall (read+write) accesses (Count)
system.cpu.icache.overallAccesses::total    185299292                       # number of overall (read+write) accesses (Count)
system.cpu.icache.demandMissRate::cpu.inst     0.000004                       # miss rate for demand accesses (Ratio)
system.cpu.icache.demandMissRate::total      0.000004                       # miss rate for demand accesses (Ratio)
system.cpu.icache.overallMissRate::cpu.inst     0.000004                       # miss rate for overall accesses (Ratio)
system.cpu.icache.overallMissRate::total     0.000004                       # miss rate for overall accesses (Ratio)
system.cpu.icache.demandAvgMissLatency::cpu.inst 70471.530105                       # average overall miss latency in ticks ((Tick/Count))
system.cpu.icache.demandAvgMissLatency::total 70471.530105                       # average overall miss latency in ticks ((Tick/Count))
system.cpu.icache.overallAvgMissLatency::cpu.inst 70471.530105                       # average overall miss latency ((Tick/Count))
system.cpu.icache.overallAvgMissLatency::total 70471.530105                       # average overall miss latency ((Tick/Count))
system.cpu.icache.blockedCycles::no_mshrs         8309                       # number of cycles access was blocked (Cycle)
system.cpu.icache.blockedCycles::no_targets            0                       # number of cycles access was blocked (Cycle)
system.cpu.icache.blockedCauses::no_mshrs           18                       # number of times access was blocked (Count)
system.cpu.icache.blockedCauses::no_targets            0                       # number of times access was blocked (Count)
system.cpu.icache.avgBlocked::no_mshrs     461.611111                       # average number of cycles each access was blocked ((Cycle/Count))
system.cpu.icache.avgBlocked::no_targets          nan                       # average number of cycles each access was blocked ((Cycle/Count))
system.cpu.icache.demandMshrHits::cpu.inst          194                       # number of demand (read+write) MSHR hits (Count)
system.cpu.icache.demandMshrHits::total           194                       # number of demand (read+write) MSHR hits (Count)
system.cpu.icache.overallMshrHits::cpu.inst          194                       # number of overall MSHR hits (Count)
system.cpu.icache.overallMshrHits::total          194                       # number of overall MSHR hits (Count)
system.cpu.icache.demandMshrMisses::cpu.inst          570                       # number of demand (read+write) MSHR misses (Count)
system.cpu.icache.demandMshrMisses::total          570                       # number of demand (read+write) MSHR misses (Count)
system.cpu.icache.overallMshrMisses::cpu.inst          570                       # number of overall MSHR misses (Count)
system.cpu.icache.overallMshrMisses::total          570                       # number of overall MSHR misses (Count)
system.cpu.icache.demandMshrMissLatency::cpu.inst     42507874                       # number of demand (read+write) MSHR miss ticks (Tick)
system.cpu.icache.demandMshrMissLatency::total     42507874                       # number of demand (read+write) MSHR miss ticks (Tick)
system.cpu.icache.overallMshrMissLatency::cpu.inst     42507874                       # number of overall MSHR miss ticks (Tick)
system.cpu.icache.overallMshrMissLatency::total     42507874                       # number of overall MSHR miss ticks (Tick)
system.cpu.icache.demandMshrMissRate::cpu.inst     0.000003                       # mshr miss ratio for demand accesses (Ratio)
system.cpu.icache.demandMshrMissRate::total     0.000003                       # mshr miss ratio for demand accesses (Ratio)
system.cpu.icache.overallMshrMissRate::cpu.inst     0.000003                       # mshr miss ratio for overall accesses (Ratio)
system.cpu.icache.overallMshrMissRate::total     0.000003                       # mshr miss ratio for overall accesses (Ratio)
system.cpu.icache.demandAvgMshrMissLatency::cpu.inst 74575.217544                       # average overall mshr miss latency ((Tick/Count))
system.cpu.icache.demandAvgMshrMissLatency::total 74575.217544                       # average overall mshr miss latency ((Tick/Count))
system.cpu.icache.overallAvgMshrMissLatency::cpu.inst 74575.217544                       # average overall mshr miss latency ((Tick/Count))
system.cpu.icache.overallAvgMshrMissLatency::total 74575.217544                       # average overall mshr miss latency ((Tick/Count))
system.cpu.icache.replacements                    123                       # number of replacements (Count)
system.cpu.icache.ReadReq.hits::cpu.inst    185298528                       # number of ReadReq hits (Count)
system.cpu.icache.ReadReq.hits::total       185298528                       # number of ReadReq hits (Count)
system.cpu.icache.ReadReq.misses::cpu.inst          764                       # number of ReadReq misses (Count)
system.cpu.icache.ReadReq.misses::total           764                       # number of ReadReq misses (Count)
system.cpu.icache.ReadReq.missLatency::cpu.inst     53840249                       # number of ReadReq miss ticks (Tick)
system.cpu.icache.ReadReq.missLatency::total     53840249                       # number of ReadReq miss ticks (Tick)
system.cpu.icache.ReadReq.accesses::cpu.inst    185299292                       # number of ReadReq accesses(hits+misses) (Count)
system.cpu.icache.ReadReq.accesses::total    185299292                       # number of ReadReq accesses(hits+misses) (Count)
system.cpu.icache.ReadReq.missRate::cpu.inst     0.000004                       # miss rate for ReadReq accesses (Ratio)
system.cpu.icache.ReadReq.missRate::total     0.000004                       # miss rate for ReadReq accesses (Ratio)
system.cpu.icache.ReadReq.avgMissLatency::cpu.inst 70471.530105                       # average ReadReq miss latency ((Tick/Count))
system.cpu.icache.ReadReq.avgMissLatency::total 70471.530105                       # average ReadReq miss latency ((Tick/Count))
system.cpu.icache.ReadReq.mshrHits::cpu.inst          194                       # number of ReadReq MSHR hits (Count)
system.cpu.icache.ReadReq.mshrHits::total          194                       # number of ReadReq MSHR hits (Count)
system.cpu.icache.ReadReq.mshrMisses::cpu.inst          570                       # number of ReadReq MSHR misses (Count)
system.cpu.icache.ReadReq.mshrMisses::total          570                       # number of ReadReq MSHR misses (Count)
system.cpu.icache.ReadReq.mshrMissLatency::cpu.inst     42507874                       # number of ReadReq MSHR miss ticks (Tick)
system.cpu.icache.ReadReq.mshrMissLatency::total     42507874                       # number of ReadReq MSHR miss ticks (Tick)
system.cpu.icache.ReadReq.mshrMissRate::cpu.inst     0.000003                       # mshr miss rate for ReadReq accesses (Ratio)
system.cpu.icache.ReadReq.mshrMissRate::total     0.000003                       # mshr miss rate for ReadReq accesses (Ratio)
system.cpu.icache.ReadReq.avgMshrMissLatency::cpu.inst 74575.217544                       # average ReadReq mshr miss latency ((Tick/Count))
system.cpu.icache.ReadReq.avgMshrMissLatency::total 74575.217544                       # average ReadReq mshr miss latency ((Tick/Count))
system.cpu.icache.power_state.pwrStateResidencyTicks::UNDEFINED 909322670125                       # Cumulative time (in ticks) in various power states (Tick)
system.cpu.icache.tags.tagsInUse           432.802584                       # Average ticks per tags in use ((Tick/Count))
system.cpu.icache.tags.totalRefs            185299098                       # Total number of references to valid blocks. (Count)
system.cpu.icache.tags.sampledRefs                570                       # Sample count of references to valid blocks. (Count)
system.cpu.icache.tags.avgRefs           325086.136842                       # Average number of references to valid blocks. ((Count/Count))
system.cpu.icache.tags.warmupTick               82000                       # The tick when the warmup percentage was hit. (Tick)
system.cpu.icache.tags.occupancies::cpu.inst   432.802584                       # Average occupied blocks per tick, per requestor ((Count/Tick))
system.cpu.icache.tags.avgOccs::cpu.inst     0.845318                       # Average percentage of cache occupancy ((Ratio/Tick))
system.cpu.icache.tags.avgOccs::total        0.845318                       # Average percentage of cache occupancy ((Ratio/Tick))
system.cpu.icache.tags.occupanciesTaskId::1024          437                       # Occupied blocks per task id (Count)
system.cpu.icache.tags.ageTaskId_1024::4          437                       # Occupied blocks per task id, per block age (Count)
system.cpu.icache.tags.ratioOccsTaskId::1024     0.853516                       # Ratio of occupied blocks and all blocks, per task id (Ratio)
system.cpu.icache.tags.tagAccesses          741197738                       # Number of tag accesses (Count)
system.cpu.icache.tags.dataAccesses         741197738                       # Number of data accesses (Count)
system.cpu.icache.tags.power_state.pwrStateResidencyTicks::UNDEFINED 909322670125                       # Cumulative time (in ticks) in various power states (Tick)
system.cpu.iew.idleCycles                           0                       # Number of cycles IEW is idle (Cycle)
system.cpu.iew.squashCycles                   9252350                       # Number of cycles IEW is squashing (Cycle)
system.cpu.iew.blockCycles                 5584078570                       # Number of cycles IEW is blocking (Cycle)
system.cpu.iew.unblockCycles                485056304                       # Number of cycles IEW is unblocking (Cycle)
system.cpu.iew.dispatchedInsts             1431786469                       # Number of instructions dispatched to IQ (Count)
system.cpu.iew.dispSquashedInsts              3154272                       # Number of squashed instructions skipped by dispatch (Count)
system.cpu.iew.dispLoadInsts                349178070                       # Number of dispatched load instructions (Count)
system.cpu.iew.dispStoreInsts               144041958                       # Number of dispatched store instructions (Count)
system.cpu.iew.dispNonSpecInsts               1270644                       # Number of dispatched non-speculative instructions (Count)
system.cpu.iew.iqFullEvents                   8670724                       # Number of times the IQ has become full, causing a stall (Count)
system.cpu.iew.lsqFullEvents                465939557                       # Number of times the LSQ has become full, causing a stall (Count)
system.cpu.iew.memOrderViolationEvents         869844                       # Number of memory order violations (Count)
system.cpu.iew.predictedTakenIncorrect        4363763                       # Number of branches that were predicted taken incorrectly (Count)
system.cpu.iew.predictedNotTakenIncorrect      5118696                       # Number of branches that were predicted not taken incorrectly (Count)
system.cpu.iew.branchMispredicts              9482459                       # Number of branch mispredicts detected at execute (Count)
system.cpu.iew.instsToCommit               1247777998                       # Cumulative count of insts sent to commit (Count)
system.cpu.iew.writebackCount              1243403018                       # Cumulative count of insts written-back (Count)
system.cpu.iew.producerInst                 685143971                       # Number of instructions producing a value (Count)
system.cpu.iew.consumerInst                1207594250                       # Number of instructions consuming a value (Count)
system.cpu.iew.wbRate                        0.170924                       # Insts written-back per cycle ((Count/Cycle))
system.cpu.iew.wbFanout                      0.567363                       # Average fanout of values written-back ((Count/Count))
system.cpu.lsq0.forwLoads                    13381122                       # Number of loads that had data forwarded from stores (Count)
system.cpu.lsq0.squashedLoads                91945205                       # Number of loads squashed (Count)
system.cpu.lsq0.ignoredResponses               252044                       # Number of memory responses ignored because the instruction is squashed (Count)
system.cpu.lsq0.memOrderViolation              869844                       # Number of memory ordering violations (Count)
system.cpu.lsq0.squashedStores               29680534                       # Number of stores squashed (Count)
system.cpu.lsq0.rescheduledLoads              5116087                       # Number of loads that were rescheduled (Count)
system.cpu.lsq0.blockedByCache               17162180                       # Number of times an access to memory failed due to the cache being blocked (Count)
system.cpu.lsq0.loadToUse::samples          257022175                       # Distribution of cycle latency between the first time a load is issued and its completion (Unspecified)
system.cpu.lsq0.loadToUse::mean             98.265707                       # Distribution of cycle latency between the first time a load is issued and its completion (Unspecified)
system.cpu.lsq0.loadToUse::stdev           265.901675                       # Distribution of cycle latency between the first time a load is issued and its completion (Unspecified)
system.cpu.lsq0.loadToUse::0-9              193815021     75.41%     75.41% # Distribution of cycle latency between the first time a load is issued and its completion (Unspecified)
system.cpu.lsq0.loadToUse::10-19              2152784      0.84%     76.25% # Distribution of cycle latency between the first time a load is issued and its completion (Unspecified)
system.cpu.lsq0.loadToUse::20-29              1416463      0.55%     76.80% # Distribution of cycle latency between the first time a load is issued and its completion (Unspecified)
system.cpu.lsq0.loadToUse::30-39              1259380      0.49%     77.29% # Distribution of cycle latency between the first time a load is issued and its completion (Unspecified)
system.cpu.lsq0.loadToUse::40-49               868419      0.34%     77.62% # Distribution of cycle latency between the first time a load is issued and its completion (Unspecified)
system.cpu.lsq0.loadToUse::50-59               792931      0.31%     77.93% # Distribution of cycle latency between the first time a load is issued and its completion (Unspecified)
[...]
system.mem_ctrl.dram.perBankRdBursts::8        479699                       # Per bank write bursts (Count)
system.mem_ctrl.dram.perBankRdBursts::9        479826                       # Per bank write bursts (Count)
system.mem_ctrl.dram.perBankRdBursts::10       466927                       # Per bank write bursts (Count)
system.mem_ctrl.dram.perBankRdBursts::11       466152                       # Per bank write bursts (Count)
system.mem_ctrl.dram.perBankRdBursts::12       446860                       # Per bank write bursts (Count)
system.mem_ctrl.dram.perBankRdBursts::13       461348                       # Per bank write bursts (Count)
system.mem_ctrl.dram.perBankRdBursts::14       458367                       # Per bank write bursts (Count)
system.mem_ctrl.dram.perBankRdBursts::15       459754                       # Per bank write bursts (Count)
system.mem_ctrl.dram.perBankRdBursts::16       445982                       # Per bank write bursts (Count)
system.mem_ctrl.dram.perBankRdBursts::17       461305                       # Per bank write bursts (Count)
system.mem_ctrl.dram.perBankRdBursts::18       430854                       # Per bank write bursts (Count)
system.mem_ctrl.dram.perBankRdBursts::19       447263                       # Per bank write bursts (Count)
system.mem_ctrl.dram.perBankRdBursts::20       438961                       # Per bank write bursts (Count)
system.mem_ctrl.dram.perBankRdBursts::21       456653                       # Per bank write bursts (Count)
system.mem_ctrl.dram.perBankRdBursts::22       448539                       # Per bank write bursts (Count)
system.mem_ctrl.dram.perBankRdBursts::23       465610                       # Per bank write bursts (Count)
system.mem_ctrl.dram.perBankRdBursts::24       474025                       # Per bank write bursts (Count)
system.mem_ctrl.dram.perBankRdBursts::25       464666                       # Per bank write bursts (Count)
system.mem_ctrl.dram.perBankRdBursts::26       462073                       # Per bank write bursts (Count)
system.mem_ctrl.dram.perBankRdBursts::27       470766                       # Per bank write bursts (Count)
system.mem_ctrl.dram.perBankRdBursts::28       468410                       # Per bank write bursts (Count)
system.mem_ctrl.dram.perBankRdBursts::29       469953                       # Per bank write bursts (Count)
system.mem_ctrl.dram.perBankRdBursts::30       482492                       # Per bank write bursts (Count)
system.mem_ctrl.dram.perBankRdBursts::31       466540                       # Per bank write bursts (Count)
system.mem_ctrl.dram.perBankWrBursts::0        179803                       # Per bank write bursts (Count)
system.mem_ctrl.dram.perBankWrBursts::1        172911                       # Per bank write bursts (Count)
system.mem_ctrl.dram.perBankWrBursts::2        180284                       # Per bank write bursts (Count)
system.mem_ctrl.dram.perBankWrBursts::3        172749                       # Per bank write bursts (Count)
system.mem_ctrl.dram.perBankWrBursts::4        178768                       # Per bank write bursts (Count)
system.mem_ctrl.dram.perBankWrBursts::5        172121                       # Per bank write bursts (Count)
system.mem_ctrl.dram.perBankWrBursts::6        180187                       # Per bank write bursts (Count)
system.mem_ctrl.dram.perBankWrBursts::7        171606                       # Per bank write bursts (Count)
system.mem_ctrl.dram.perBankWrBursts::8        179848                       # Per bank write bursts (Count)
system.mem_ctrl.dram.perBankWrBursts::9        179992                       # Per bank write bursts (Count)
system.mem_ctrl.dram.perBankWrBursts::10       172401                       # Per bank write bursts (Count)
system.mem_ctrl.dram.perBankWrBursts::11       179251                       # Per bank write bursts (Count)
system.mem_ctrl.dram.perBankWrBursts::12       171848                       # Per bank write bursts (Count)
system.mem_ctrl.dram.perBankWrBursts::13       179161                       # Per bank write bursts (Count)
system.mem_ctrl.dram.perBankWrBursts::14       176987                       # Per bank write bursts (Count)
system.mem_ctrl.dram.perBankWrBursts::15       179167                       # Per bank write bursts (Count)
system.mem_ctrl.dram.perBankWrBursts::16       172890                       # Per bank write bursts (Count)
system.mem_ctrl.dram.perBankWrBursts::17       178994                       # Per bank write bursts (Count)
system.mem_ctrl.dram.perBankWrBursts::18       163605                       # Per bank write bursts (Count)
system.mem_ctrl.dram.perBankWrBursts::19       178717                       # Per bank write bursts (Count)
system.mem_ctrl.dram.perBankWrBursts::20       163677                       # Per bank write bursts (Count)
system.mem_ctrl.dram.perBankWrBursts::21       180885                       # Per bank write bursts (Count)
system.mem_ctrl.dram.perBankWrBursts::22       172691                       # Per bank write bursts (Count)
system.mem_ctrl.dram.perBankWrBursts::23       179476                       # Per bank write bursts (Count)
system.mem_ctrl.dram.perBankWrBursts::24       172785                       # Per bank write bursts (Count)
system.mem_ctrl.dram.perBankWrBursts::25       179920                       # Per bank write bursts (Count)
system.mem_ctrl.dram.perBankWrBursts::26       172669                       # Per bank write bursts (Count)
system.mem_ctrl.dram.perBankWrBursts::27       180220                       # Per bank write bursts (Count)
system.mem_ctrl.dram.perBankWrBursts::28       179894                       # Per bank write bursts (Count)
system.mem_ctrl.dram.perBankWrBursts::29       172475                       # Per bank write bursts (Count)
system.mem_ctrl.dram.perBankWrBursts::30       179441                       # Per bank write bursts (Count)
system.mem_ctrl.dram.perBankWrBursts::31       172126                       # Per bank write bursts (Count)
system.mem_ctrl.dram.totQLat             296112142884                       # Total ticks spent queuing (Tick)
system.mem_ctrl.dram.totBusLat            49594417628                       # Total ticks spent in databus transfers (Tick)
system.mem_ctrl.dram.totMemAccLat        556467951152                       # Total ticks spent from burst creation until serviced by the DRAM (Tick)
system.mem_ctrl.dram.avgQLat                 19894.29                       # Average queueing delay per DRAM burst ((Tick/Count))
system.mem_ctrl.dram.avgBusLat                3332.00                       # Average bus latency per DRAM burst ((Tick/Count))
system.mem_ctrl.dram.avgMemAccLat            37386.29                       # Average memory access latency per DRAM burst ((Tick/Count))
system.mem_ctrl.dram.readRowHits              7065446                       # Number of row buffer hits during reads (Count)
system.mem_ctrl.dram.writeRowHits             2833209                       # Number of row buffer hits during writes (Count)
system.mem_ctrl.dram.readRowHitRate             47.47                       # Row buffer hit rate for reads (Ratio)
system.mem_ctrl.dram.writeRowHitRate            50.35                       # Row buffer hit rate for writes (Ratio)
system.mem_ctrl.dram.bytesPerActivate::samples     10613167                       # Bytes accessed per row activation (Byte)
system.mem_ctrl.dram.bytesPerActivate::mean   123.691281                       # Bytes accessed per row activation (Byte)
system.mem_ctrl.dram.bytesPerActivate::gmean    85.611584                       # Bytes accessed per row activation (Byte)
system.mem_ctrl.dram.bytesPerActivate::stdev   179.910283                       # Bytes accessed per row activation (Byte)
system.mem_ctrl.dram.bytesPerActivate::0-127      8350545     78.68%     78.68% # Bytes accessed per row activation (Byte)
system.mem_ctrl.dram.bytesPerActivate::128-255      1280848     12.07%     90.75% # Bytes accessed per row activation (Byte)
system.mem_ctrl.dram.bytesPerActivate::256-383       252310      2.38%     93.13% # Bytes accessed per row activation (Byte)
system.mem_ctrl.dram.bytesPerActivate::384-511       180411      1.70%     94.83% # Bytes accessed per row activation (Byte)
system.mem_ctrl.dram.bytesPerActivate::512-639       127064      1.20%     96.02% # Bytes accessed per row activation (Byte)
system.mem_ctrl.dram.bytesPerActivate::640-767        84192      0.79%     96.82% # Bytes accessed per row activation (Byte)
system.mem_ctrl.dram.bytesPerActivate::768-895        61729      0.58%     97.40% # Bytes accessed per row activation (Byte)
system.mem_ctrl.dram.bytesPerActivate::896-1023        48578      0.46%     97.86% # Bytes accessed per row activation (Byte)
system.mem_ctrl.dram.bytesPerActivate::1024-1151       227490      2.14%    100.00% # Bytes accessed per row activation (Byte)
system.mem_ctrl.dram.bytesPerActivate::total     10613167                       # Bytes accessed per row activation (Byte)
system.mem_ctrl.dram.bytesRead              952593856                       # Total bytes read (Byte)
system.mem_ctrl.dram.bytesWritten           360163136                       # Total bytes written (Byte)
system.mem_ctrl.dram.avgRdBW              1047.586173                       # Average DRAM read bandwidth in MiBytes/s ((Byte/Second))
system.mem_ctrl.dram.avgWrBW               396.078474                       # Average DRAM write bandwidth in MiBytes/s ((Byte/Second))
system.mem_ctrl.dram.peakBW                  19207.00                       # Theoretical peak bandwidth in MiByte/s ((Byte/Second))
system.mem_ctrl.dram.busUtil                     7.52                       # Data bus utilization in percentage (Ratio)
system.mem_ctrl.dram.busUtilRead                 5.45                       # Data bus utilization in percentage for reads (Ratio)
system.mem_ctrl.dram.busUtilWrite                2.06                       # Data bus utilization in percentage for writes (Ratio)
system.mem_ctrl.dram.pageHitRate                48.26                       # Row buffer hit rate, read and write combined (Ratio)
system.mem_ctrl.dram.power_state.pwrStateResidencyTicks::UNDEFINED 909322670125                       # Cumulative time (in ticks) in various power states (Tick)
system.mem_ctrl.dram.rank0.actEnergy     16588011900.095348                       # Energy for activate commands per rank (pJ) (Joule)
system.mem_ctrl.dram.rank0.preEnergy     22053524276.313251                       # Energy for precharge commands per rank (pJ) (Joule)
system.mem_ctrl.dram.rank0.readEnergy    31674352085.241570                       # Energy for read commands per rank (pJ) (Joule)
system.mem_ctrl.dram.rank0.writeEnergy   10625583905.664263                       # Energy for write commands per rank (pJ) (Joule)
system.mem_ctrl.dram.rank0.refreshEnergy 161799638458.072449                       # Energy for refresh commands per rank (pJ) (Joule)
system.mem_ctrl.dram.rank0.actBackEnergy 666838095320.974731                       # Energy for active background per rank (pJ) (Joule)
system.mem_ctrl.dram.rank0.preBackEnergy 81233065419.277191                       # Energy for precharge background per rank (pJ) (Joule)
system.mem_ctrl.dram.rank0.actPowerDownEnergy            0                       # Energy for active power-down per rank (pJ) (Joule)
system.mem_ctrl.dram.rank0.prePowerDownEnergy            0                       # Energy for precharge power-down per rank (pJ) (Joule)
system.mem_ctrl.dram.rank0.selfRefreshEnergy            0                       # Energy for self refresh per rank (pJ) (Joule)
system.mem_ctrl.dram.rank0.totalEnergy   990812271366.084106                       # Total energy per rank (pJ) (Joule)
system.mem_ctrl.dram.rank0.averagePower   1089.615715                       # Core power per rank (mW) (Watt)
system.mem_ctrl.dram.rank0.totalIdleTime            0                       # Total Idle time Per DRAM Rank (Tick)
system.mem_ctrl.dram.rank0.pwrStateTime::IDLE 119924467889                       # Time in different power states (Tick)
system.mem_ctrl.dram.rank0.pwrStateTime::REF  40876850000                       # Time in different power states (Tick)
system.mem_ctrl.dram.rank0.pwrStateTime::SREF            0                       # Time in different power states (Tick)
system.mem_ctrl.dram.rank0.pwrStateTime::PRE_PDN            0                       # Time in different power states (Tick)
system.mem_ctrl.dram.rank0.pwrStateTime::ACT 748521352236                       # Time in different power states (Tick)
system.mem_ctrl.dram.rank0.pwrStateTime::ACT_PDN            0                       # Time in different power states (Tick)
system.mem_ctrl.dram.rank1.actEnergy     16511842619.999435                       # Energy for activate commands per rank (pJ) (Joule)
system.mem_ctrl.dram.rank1.preEnergy     21952283072.999752                       # Energy for precharge commands per rank (pJ) (Joule)
system.mem_ctrl.dram.rank1.readEnergy    30933640728.345863                       # Energy for read commands per rank (pJ) (Joule)
system.mem_ctrl.dram.rank1.writeEnergy   10525536500.640221                       # Energy for write commands per rank (pJ) (Joule)
system.mem_ctrl.dram.rank1.refreshEnergy 161799638458.072449                       # Energy for refresh commands per rank (pJ) (Joule)
system.mem_ctrl.dram.rank1.actBackEnergy 665246315679.643311                       # Energy for active background per rank (pJ) (Joule)
system.mem_ctrl.dram.rank1.preBackEnergy 82456127742.577545                       # Energy for precharge background per rank (pJ) (Joule)
system.mem_ctrl.dram.rank1.actPowerDownEnergy            0                       # Energy for active power-down per rank (pJ) (Joule)
system.mem_ctrl.dram.rank1.prePowerDownEnergy            0                       # Energy for precharge power-down per rank (pJ) (Joule)
system.mem_ctrl.dram.rank1.selfRefreshEnergy            0                       # Energy for self refresh per rank (pJ) (Joule)
system.mem_ctrl.dram.rank1.totalEnergy   989425384802.692261                       # Total energy per rank (pJ) (Joule)
system.mem_ctrl.dram.rank1.averagePower   1088.090529                       # Core power per rank (mW) (Watt)
system.mem_ctrl.dram.rank1.totalIdleTime            0                       # Total Idle time Per DRAM Rank (Tick)
system.mem_ctrl.dram.rank1.pwrStateTime::IDLE 121889153400                       # Time in different power states (Tick)
system.mem_ctrl.dram.rank1.pwrStateTime::REF  40876850000                       # Time in different power states (Tick)
system.mem_ctrl.dram.rank1.pwrStateTime::SREF            0                       # Time in different power states (Tick)
system.mem_ctrl.dram.rank1.pwrStateTime::PRE_PDN            0                       # Time in different power states (Tick)
system.mem_ctrl.dram.rank1.pwrStateTime::ACT 746556666725                       # Time in different power states (Tick)
system.mem_ctrl.dram.rank1.pwrStateTime::ACT_PDN            0                       # Time in different power states (Tick)
system.mem_ctrl.power_state.pwrStateResidencyTicks::UNDEFINED 909322670125                       # Cumulative time (in ticks) in various power states (Tick)
system.membus.transDist::ReadResp            14576193                       # Transaction distribution (Count)
system.membus.transDist::WritebackDirty       5627602                       # Transaction distribution (Count)
system.membus.transDist::CleanEvict           9229894                       # Transaction distribution (Count)
system.membus.transDist::UpgradeReq                 7                       # Transaction distribution (Count)
system.membus.transDist::ReadExReq             314808                       # Transaction distribution (Count)
system.membus.transDist::ReadExResp            314808                       # Transaction distribution (Count)
system.membus.transDist::ReadSharedReq       14576193                       # Transaction distribution (Count)
system.membus.pktCount_system.l2cache.mem_side_port::system.mem_ctrl.port     44639505                       # Packet count per connected requestor and responder (Count)
system.membus.pktCount::total                44639505                       # Packet count per connected requestor and responder (Count)
system.membus.pktSize_system.l2cache.mem_side_port::system.mem_ctrl.port   1313190592                       # Cumulative packet size per connected requestor and responder (Byte)
system.membus.pktSize::total               1313190592                       # Cumulative packet size per connected requestor and responder (Byte)
system.membus.snoops                                0                       # Total snoops (Count)
system.membus.snoopTraffic                          0                       # Total snoop traffic (Byte)
system.membus.snoopFanout::samples           14891008                       # Request fanout histogram (Count)
system.membus.snoopFanout::mean                     0                       # Request fanout histogram (Count)
system.membus.snoopFanout::stdev                    0                       # Request fanout histogram (Count)
system.membus.snoopFanout::underflows               0      0.00%      0.00% # Request fanout histogram (Count)
system.membus.snoopFanout::0                 14891008    100.00%    100.00% # Request fanout histogram (Count)
system.membus.snoopFanout::1                        0      0.00%    100.00% # Request fanout histogram (Count)
system.membus.snoopFanout::overflows                0      0.00%    100.00% # Request fanout histogram (Count)
system.membus.snoopFanout::min_value                0                       # Request fanout histogram (Count)
system.membus.snoopFanout::max_value                0                       # Request fanout histogram (Count)
system.membus.snoopFanout::total             14891008                       # Request fanout histogram (Count)
system.membus.power_state.pwrStateResidencyTicks::UNDEFINED 909322670125                       # Cumulative time (in ticks) in various power states (Tick)
system.membus.reqLayer0.occupancy         26872513750                       # Layer occupancy (ticks) (Tick)
system.membus.reqLayer0.utilization               0.0                       # Layer utilization (Ratio)
system.membus.respLayer0.occupancy        39203875117                       # Layer occupancy (ticks) (Tick)
system.membus.respLayer0.utilization              0.0                       # Layer utilization (Ratio)
system.membus.snoop_filter.totRequests       29748504                       # Total number of requests made to the snoop filter. (Count)
system.membus.snoop_filter.hitSingleRequests     14857805                       # Number of requests hitting in the snoop filter with a single holder of the requested data. (Count)
system.membus.snoop_filter.hitMultiRequests            0                       # Number of requests hitting in the snoop filter with multiple (>1) holders of the requested data. (Count)
system.membus.snoop_filter.totSnoops                0                       # Total number of snoops made to the snoop filter. (Count)
system.membus.snoop_filter.hitSingleSnoops            0                       # Number of snoops hitting in the snoop filter with a single holder of the requested data. (Count)
system.membus.snoop_filter.hitMultiSnoops            0                       # Number of snoops hitting in the snoop filter with multiple (>1) holders of the requested data. (Count)
system.workload.inst.arm                            0                       # number of arm instructions executed (Count)
system.workload.inst.quiesce                        0                       # number of quiesce instructions executed (Count)

---------- End Simulation Statistics   ----------
