
---------- Begin Simulation Statistics ----------
simSeconds                                   0.948837                       # Number of seconds simulated (Second)
simTicks                                 948837396000                       # Number of ticks simulated (Tick)
finalTick                                948837396000                       # Number of ticks from beginning of simulation (restored from checkpoints and never reset) (Tick)
simFreq                                  1000000000000                       # The number of ticks per simulated second ((Tick/Second))
hostSeconds                                   6448.50                       # Real time elapsed on the host (Second)
hostTickRate                                147140843                       # The number of ticks simulated per host second (ticks/s) ((Tick/Second))
hostMemory                                    2287744                       # Number of bytes of host memory used (Byte)
simInsts                                   1000000000                       # Number of instructions simulated (Count)
simOps                                     1084388561                       # Number of ops (including micro ops) simulated (Count)
hostInstRate                                   155075                       # Simulator instruction rate (inst/s) ((Count/Second))
hostOpRate                                     168161                       # Simulator op (including micro ops) rate (op/s) ((Count/Second))
system.clk_domain.clock                           500                       # Clock period in ticks (Tick)
system.clk_domain.voltage_domain.voltage            1                       # Voltage in Volts (Volt)
system.cpu.numCycles                       4744186981                       # Number of cpu cycles simulated (Cycle)
system.cpu.numWorkItemsStarted                      0                       # Number of work items this cpu started (Count)
system.cpu.numWorkItemsCompleted                    0                       # Number of work items this cpu completed (Count)
system.cpu.instsAdded                      1424953212                       # Number of instructions added to the IQ (excludes non-spec) (Count)
system.cpu.nonSpecInstsAdded                  3804339                       # Number of non-speculative instructions added to the IQ (Count)
system.cpu.instsIssued                     1428650299                       # Number of instructions issued (Count)
system.cpu.squashedInstsIssued               11531347                       # Number of squashed instructions issued (Count)
system.cpu.squashedInstsExamined            344368924                       # Number of squashed instructions iterated over during squash; mainly for profiling (Count)
system.cpu.squashedOperandsExamined         806456178                       # Number of squashed operands that are examined and possibly removed from graph (Count)
system.cpu.squashedNonSpecRemoved               14899                       # Number of squashed non-spec instructions that were removed (Count)
system.cpu.numIssuedDist::samples          4744083604                       # Number of insts issued each cycle (Count)
system.cpu.numIssuedDist::mean               0.301144                       # Number of insts issued each cycle (Count)
system.cpu.numIssuedDist::stdev              1.055876                       # Number of insts issued each cycle (Count)
system.cpu.numIssuedDist::underflows                0      0.00%      0.00% # Number of insts issued each cycle (Count)
system.cpu.numIssuedDist::0                4239687470     89.37%     89.37% # Number of insts issued each cycle (Count)
system.cpu.numIssuedDist::1                 163569945      3.45%     92.82% # Number of insts issued each cycle (Count)
system.cpu.numIssuedDist::2                 100156430      2.11%     94.93% # Number of insts issued each cycle (Count)
system.cpu.numIssuedDist::3                  72802788      1.53%     96.46% # Number of insts issued each cycle (Count)
system.cpu.numIssuedDist::4                  73134009      1.54%     98.00% # Number of insts issued each cycle (Count)
system.cpu.numIssuedDist::5                  45451096      0.96%     98.96% # Number of insts issued each cycle (Count)
system.cpu.numIssuedDist::6                  27357065      0.58%     99.54% # Number of insts issued each cycle (Count)
system.cpu.numIssuedDist::7                  12973184      0.27%     99.81% # Number of insts issued each cycle (Count)
system.cpu.numIssuedDist::8                   8951617      0.19%    100.00% # Number of insts issued each cycle (Count)
system.cpu.numIssuedDist::overflows                 0      0.00%    100.00% # Number of insts issued each cycle (Count)
system.cpu.numIssuedDist::min_value                 0                       # Number of insts issued each cycle (Count)
system.cpu.numIssuedDist::max_value                 8                       # Number of insts issued each cycle (Count)
system.cpu.numIssuedDist::total            4744083604                       # Number of insts issued each cycle (Count)
system.cpu.statFuBusy::No_OpClass                   0      0.00%      0.00% # attempts to use FU when none available (Count)
system.cpu.statFuBusy::IntAlu                 1148515      2.31%      2.31% # attempts to use FU when none available (Count)
system.cpu.statFuBusy::IntMult                      0      0.00%      2.31% # attempts to use FU when none available (Count)
system.cpu.statFuBusy::IntDiv                       0      0.00%      2.31% # attempts to use FU when none available (Count)
system.cpu.statFuBusy::FloatAdd                     0      0.00%      2.31% # attempts to use FU when none available (Count)
system.cpu.statFuBusy::FloatCmp                     0      0.00%      2.31% # attempts to use FU when none available (Count)
system.cpu.statFuBusy::FloatCvt                     0      0.00%      2.31% # attempts to use FU when none available (Count)
system.cpu.statFuBusy::FloatMult                    0      0.00%      2.31% # attempts to use FU when none available (Count)
system.cpu.statFuBusy::FloatMultAcc                 0      0.00%      2.31% # attempts to use FU when none available (Count)
system.cpu.statFuBusy::FloatDiv                     0      0.00%      2.31% # attempts to use FU when none available (Count)
system.cpu.statFuBusy::FloatMisc                    0      0.00%      2.31% # attempts to use FU when none available (Count)
system.cpu.statFuBusy::FloatSqrt                    0      0.00%      2.31% # attempts to use FU when none available (Count)
system.cpu.statFuBusy::SimdAdd                      0      0.00%      2.31% # attempts to use FU when none available (Count)
system.cpu.statFuBusy::SimdAddAcc                   0      0.00%      2.31% # attempts to use FU when none available (Count)
system.cpu.statFuBusy::SimdAlu                      0      0.00%      2.31% # attempts to use FU when none available (Count)
system.cpu.statFuBusy::SimdCmp                      0      0.00%      2.31% # attempts to use FU when none available (Count)
system.cpu.statFuBusy::SimdCvt                      0      0.00%      2.31% # attempts to use FU when none available (Count)
system.cpu.statFuBusy::SimdMisc                     0      0.00%      2.31% # attempts to use FU when none available (Count)
system.cpu.statFuBusy::SimdMult                     0      0.00%      2.31% # attempts to use FU when none available (Count)
system.cpu.statFuBusy::SimdMultAcc                  0      0.00%      2.31% # attempts to use FU when none available (Count)
system.cpu.statFuBusy::SimdShift                    0      0.00%      2.31% # attempts to use FU when none available (Count)
system.cpu.statFuBusy::SimdShiftAcc                 0      0.00%      2.31% # attempts to use FU when none available (Count)
system.cpu.statFuBusy::SimdDiv                      0      0.00%      2.31% # attempts to use FU when none available (Count)
system.cpu.statFuBusy::SimdSqrt                     0      0.00%      2.31% # attempts to use FU when none available (Count)
system.cpu.statFuBusy::SimdFloatAdd                 0      0.00%      2.31% # attempts to use FU when none available (Count)
system.cpu.statFuBusy::SimdFloatAlu                 0      0.00%      2.31% # attempts to use FU when none available (Count)
system.cpu.statFuBusy::SimdFloatCmp                 0      0.00%      2.31% # attempts to use FU when none available (Count)
system.cpu.statFuBusy::SimdFloatCvt                 0      0.00%      2.31% # attempts to use FU when none available (Count)
system.cpu.statFuBusy::SimdFloatDiv                 0      0.00%      2.31% # attempts to use FU when none available (Count)
system.cpu.statFuBusy::SimdFloatMisc                0      0.00%      2.31% # attempts to use FU when none available (Count)
system.cpu.statFuBusy::SimdFloatMult                0      0.00%      2.31% # attempts to use FU when none available (Count)
system.cpu.statFuBusy::SimdFloatMultAcc             0      0.00%      2.31% # attempts to use FU when none available (Count)
system.cpu.statFuBusy::SimdFloatSqrt                0      0.00%      2.31% # attempts to use FU when none available (Count)
system.cpu.statFuBusy::SimdReduceAdd                0      0.00%      2.31% # attempts to use FU when none available (Count)
system.cpu.statFuBusy::SimdReduceAlu                0      0.00%      2.31% # attempts to use FU when none available (Count)
system.cpu.statFuBusy::SimdReduceCmp                0      0.00%      2.31% # attempts to use FU when none available (Count)
system.cpu.statFuBusy::SimdFloatReduceAdd            0      0.00%      2.31% # attempts to use FU when none available (Count)
system.cpu.statFuBusy::SimdFloatReduceCmp            0      0.00%      2.31% # attempts to use FU when none available (Count)
system.cpu.statFuBusy::SimdAes                      0      0.00%      2.31% # attempts to use FU when none available (Count)
system.cpu.statFuBusy::SimdAesMix                   0      0.00%      2.31% # attempts to use FU when none available (Count)
system.cpu.statFuBusy::SimdSha1Hash                 0      0.00%      2.31% # attempts to use FU when none available (Count)
system.cpu.statFuBusy::SimdSha1Hash2                0      0.00%      2.31% # attempts to use FU when none available (Count)
system.cpu.statFuBusy::SimdSha256Hash               0      0.00%      2.31% # attempts to use FU when none available (Count)
system.cpu.statFuBusy::SimdSha256Hash2              0      0.00%      2.31% # attempts to use FU when none available (Count)
system.cpu.statFuBusy::SimdShaSigma2                0      0.00%      2.31% # attempts to use FU when none available (Count)
system.cpu.statFuBusy::SimdShaSigma3                0      0.00%      2.31% # attempts to use FU when none available (Count)
system.cpu.statFuBusy::SimdPredAlu                  0      0.00%      2.31% # attempts to use FU when none available (Count)
system.cpu.statFuBusy::MemRead               36091225     72.72%     75.04% # attempts to use FU when none available (Count)
system.cpu.statFuBusy::MemWrite              12388312     24.96%    100.00% # attempts to use FU when none available (Count)
system.cpu.statFuBusy::FloatMemRead                 0      0.00%    100.00% # attempts to use FU when none available (Count)
system.cpu.statFuBusy::FloatMemWrite                0      0.00%    100.00% # attempts to use FU when none available (Count)
system.cpu.statFuBusy::IprAccess                    0      0.00%    100.00% # attempts to use FU when none available (Count)
system.cpu.statFuBusy::InstPrefetch                 0      0.00%    100.00% # attempts to use FU when none available (Count)
system.cpu.statIssuedInstType_0::No_OpClass           28      0.00%      0.00% # Number of instructions issued per FU type, per thread (Count)
system.cpu.statIssuedInstType_0::IntAlu     828469149     57.99%     57.99% # Number of instructions issued per FU type, per thread (Count)
system.cpu.statIssuedInstType_0::IntMult      2714981      0.19%     58.18% # Number of instructions issued per FU type, per thread (Count)
system.cpu.statIssuedInstType_0::IntDiv             0      0.00%     58.18% # Number of instructions issued per FU type, per thread (Count)
system.cpu.statIssuedInstType_0::FloatAdd            0      0.00%     58.18% # Number of instructions issued per FU type, per thread (Count)
system.cpu.statIssuedInstType_0::FloatCmp            0      0.00%     58.18% # Number of instructions issued per FU type, per thread (Count)
system.cpu.statIssuedInstType_0::FloatCvt            0      0.00%     58.18% # Number of instructions issued per FU type, per thread (Count)
system.cpu.statIssuedInstType_0::FloatMult            0      0.00%     58.18% # Number of instructions issued per FU type, per thread (Count)
system.cpu.statIssuedInstType_0::FloatMultAcc            0      0.00%     58.18% # Number of instructions issued per FU type, per thread (Count)
system.cpu.statIssuedInstType_0::FloatDiv            0      0.00%     58.18% # Number of instructions issued per FU type, per thread (Count)
system.cpu.statIssuedInstType_0::FloatMisc            0      0.00%     58.18% # Number of instructions issued per FU type, per thread (Count)
system.cpu.statIssuedInstType_0::FloatSqrt            0      0.00%     58.18% # Number of instructions issued per FU type, per thread (Count)
system.cpu.statIssuedInstType_0::SimdAdd            0      0.00%     58.18% # Number of instructions issued per FU type, per thread (Count)
system.cpu.statIssuedInstType_0::SimdAddAcc            0      0.00%     58.18% # Number of instructions issued per FU type, per thread (Count)
system.cpu.statIssuedInstType_0::SimdAlu            0      0.00%     58.18% # Number of instructions issued per FU type, per thread (Count)
system.cpu.statIssuedInstType_0::SimdCmp            0      0.00%     58.18% # Number of instructions issued per FU type, per thread (Count)
system.cpu.statIssuedInstType_0::SimdCvt            0      0.00%     58.18% # Number of instructions issued per FU type, per thread (Count)
system.cpu.statIssuedInstType_0::SimdMisc            0      0.00%     58.18% # Number of instructions issued per FU type, per thread (Count)
system.cpu.statIssuedInstType_0::SimdMult            0      0.00%     58.18% # Number of instructions issued per FU type, per thread (Count)
system.cpu.statIssuedInstType_0::SimdMultAcc            0      0.00%     58.18% # Number of instructions issued per FU type, per thread (Count)
system.cpu.statIssuedInstType_0::SimdShift            0      0.00%     58.18% # Number of instructions issued per FU type, per thread (Count)
system.cpu.statIssuedInstType_0::SimdShiftAcc            0      0.00%     58.18% # Number of instructions issued per FU type, per thread (Count)
system.cpu.statIssuedInstType_0::SimdDiv            0      0.00%     58.18% # Number of instructions issued per FU type, per thread (Count)
system.cpu.statIssuedInstType_0::SimdSqrt            0      0.00%     58.18% # Number of instructions issued per FU type, per thread (Count)
system.cpu.statIssuedInstType_0::SimdFloatAdd            0      0.00%     58.18% # Number of instructions issued per FU type, per thread (Count)
system.cpu.statIssuedInstType_0::SimdFloatAlu            0      0.00%     58.18% # Number of instructions issued per FU type, per thread (Count)
system.cpu.statIssuedInstType_0::SimdFloatCmp            0      0.00%     58.18% # Number of instructions issued per FU type, per thread (Count)
system.cpu.statIssuedInstType_0::SimdFloatCvt            0      0.00%     58.18% # Number of instructions issued per FU type, per thread (Count)
system.cpu.statIssuedInstType_0::SimdFloatDiv            0      0.00%     58.18% # Number of instructions issued per FU type, per thread (Count)
system.cpu.statIssuedInstType_0::SimdFloatMisc            3      0.00%     58.18% # Number of instructions issued per FU type, per thread (Count)
system.cpu.statIssuedInstType_0::SimdFloatMult            0      0.00%     58.18% # Number of instructions issued per FU type, per thread (Count)
system.cpu.statIssuedInstType_0::SimdFloatMultAcc            0      0.00%     58.18% # Number of instructions issued per FU type, per thread (Count)
system.cpu.statIssuedInstType_0::SimdFloatSqrt            0      0.00%     58.18% # Number of instructions issued per FU type, per thread (Count)
system.cpu.statIssuedInstType_0::SimdReduceAdd            0      0.00%     58.18% # Number of instructions issued per FU type, per thread (Count)
system.cpu.statIssuedInstType_0::SimdReduceAlu            0      0.00%     58.18% # Number of instructions issued per FU type, per thread (Count)
system.cpu.statIssuedInstType_0::SimdReduceCmp            0      0.00%     58.18% # Number of instructions issued per FU type, per thread (Count)
system.cpu.statIssuedInstType_0::SimdFloatReduceAdd            0      0.00%     58.18% # Number of instructions issued per FU type, per thread (Count)
system.cpu.statIssuedInstType_0::SimdFloatReduceCmp            0      0.00%     58.18% # Number of instructions issued per FU type, per thread (Count)
system.cpu.statIssuedInstType_0::SimdAes            0      0.00%     58.18% # Number of instructions issued per FU type, per thread (Count)
system.cpu.statIssuedInstType_0::SimdAesMix            0      0.00%     58.18% # Number of instructions issued per FU type, per thread (Count)
system.cpu.statIssuedInstType_0::SimdSha1Hash            0      0.00%     58.18% # Number of instructions issued per FU type, per thread (Count)
system.cpu.statIssuedInstType_0::SimdSha1Hash2            0      0.00%     58.18% # Number of instructions issued per FU type, per thread (Count)
system.cpu.statIssuedInstType_0::SimdSha256Hash            0      0.00%     58.18% # Number of instructions issued per FU type, per thread (Count)
system.cpu.statIssuedInstType_0::SimdSha256Hash2            0      0.00%     58.18% # Number of instructions issued per FU type, per thread (Count)
system.cpu.statIssuedInstType_0::SimdShaSigma2            0      0.00%     58.18% # Number of instructions issued per FU type, per thread (Count)
system.cpu.statIssuedInstType_0::SimdShaSigma3            0      0.00%     58.18% # Number of instructions issued per FU type, per thread (Count)
system.cpu.statIssuedInstType_0::SimdPredAlu            0      0.00%     58.18% # Number of instructions issued per FU type, per thread (Count)
system.cpu.statIssuedInstType_0::MemRead    465741444     32.60%     90.78% # Number of instructions issued per FU type, per thread (Count)
system.cpu.statIssuedInstType_0::MemWrite    131724694      9.22%    100.00% # Number of instructions issued per FU type, per thread (Count)
system.cpu.statIssuedInstType_0::FloatMemRead            0      0.00%    100.00% # Number of instructions issued per FU type, per thread (Count)
system.cpu.statIssuedInstType_0::FloatMemWrite            0      0.00%    100.00% # Number of instructions issued per FU type, per thread (Count)
system.cpu.statIssuedInstType_0::IprAccess            0      0.00%    100.00% # Number of instructions issued per FU type, per thread (Count)
system.cpu.statIssuedInstType_0::InstPrefetch            0      0.00%    100.00% # Number of instructions issued per FU type, per thread (Count)
system.cpu.statIssuedInstType_0::total     1428650299                       # Number of instructions issued per FU type, per thread (Count)
system.cpu.issueRate                         0.301137                       # Inst issue rate ((Count/Cycle))
system.cpu.fuBusy                            49628052                       # FU busy when requested (Count)
system.cpu.fuBusyRate                        0.034738                       # FU busy rate (busy events/executed inst) ((Count/Count))
system.cpu.intInstQueueReads               7662543601                       # Number of integer instruction queue reads (Count)
system.cpu.intInstQueueWrites              1773995681                       # Number of integer instruction queue writes (Count)
system.cpu.intInstQueueWakeupAccesses      1241754779                       # Number of integer instruction queue wakeup accesses (Count)
system.cpu.fpInstQueueReads                         0                       # Number of floating instruction queue reads (Count)
system.cpu.fpInstQueueWrites                        0                       # Number of floating instruction queue writes (Count)
system.cpu.fpInstQueueWakeupAccesses                0                       # Number of floating instruction queue wakeup accesses (Count)
system.cpu.vecInstQueueReads                        0                       # Number of vector instruction queue reads (Count)
system.cpu.vecInstQueueWrites                       0                       # Number of vector instruction queue writes (Count)
system.cpu.vecInstQueueWakeupAccesses               0                       # Number of vector instruction queue wakeup accesses (Count)
system.cpu.intAluAccesses                  1478278323                       # Number of integer alu accesses (Count)
system.cpu.fpAluAccesses                            0                       # Number of floating point alu accesses (Count)
system.cpu.vecAluAccesses                           0                       # Number of vector alu accesses (Count)
system.cpu.numInsts                        1416923891                       # Number of executed instructions (Count)
system.cpu.numLoadInsts                     461405066                       # Number of load instructions executed (Count)
system.cpu.numSquashedInsts                  11726408                       # Number of squashed instructions skipped in execute (Count)
system.cpu.numSwp                                   0                       # Number of swp insts executed (Count)
system.cpu.numNop                                  31                       # Number of nop insts executed (Count)
system.cpu.numRefs                          591438563                       # Number of memory reference insts executed (Count)
system.cpu.numBranches                      269235615                       # Number of branches executed (Count)
system.cpu.numStoreInsts                    130033497                       # Number of stores executed (Count)
system.cpu.numRate                           0.298665                       # Inst execution rate ((Count/Cycle))
system.cpu.timesIdled                             437                       # Number of times that the entire CPU went into an idle state and unscheduled itself (Count)
system.cpu.idleCycles                          103377                       # Total number of cycles that the CPU has spent unscheduled due to idling (Cycle)
system.cpu.committedInsts                  1000000000                       # Number of Instructions Simulated (Count)
system.cpu.committedOps                    1084388561                       # Number of Ops (including micro ops) Simulated (Count)
system.cpu.cpi                               4.744187                       # CPI: Cycles Per Instruction ((Cycle/Count))
system.cpu.totalCpi                          4.744187                       # CPI: Total CPI of All Threads ((Cycle/Count))
system.cpu.ipc                               0.210784                       # IPC: Instructions Per Cycle ((Count/Cycle))
system.cpu.totalIpc                          0.210784                       # IPC: Total IPC of All Threads ((Count/Cycle))
system.cpu.intRegfileReads                 1444535483                       # Number of integer regfile reads (Count)
system.cpu.intRegfileWrites                 652201497                       # Number of integer regfile writes (Count)
system.cpu.vecRegfileReads                         32                       # number of vector regfile reads (Count)
system.cpu.ccRegfileReads                  5068405989                       # number of cc regfile reads (Count)
system.cpu.ccRegfileWrites                  838588359                       # number of cc regfile writes (Count)
system.cpu.miscRegfileReads                 429700415                       # number of misc regfile reads (Count)
system.cpu.miscRegfileWrites                  5052022                       # number of misc regfile writes (Count)
system.cpu.MemDepUnit__0.insertedLoads      348270906                       # Number of loads inserted to the mem dependence unit. (Count)
system.cpu.MemDepUnit__0.insertedStores     143902447                       # Number of stores inserted to the mem dependence unit. (Count)
system.cpu.MemDepUnit__0.conflictingLoads     48005638                       # Number of conflicting loads. (Count)
system.cpu.MemDepUnit__0.conflictingStores     34028417                       # Number of conflicting stores. (Count)
system.cpu.MemDepUnit__1.insertedLoads              0                       # Number of loads inserted to the mem dependence unit. (Count)
system.cpu.MemDepUnit__1.insertedStores             0                       # Number of stores inserted to the mem dependence unit. (Count)
system.cpu.MemDepUnit__1.conflictingLoads            0                       # Number of conflicting loads. (Count)
system.cpu.MemDepUnit__1.conflictingStores            0                       # Number of conflicting stores. (Count)
system.cpu.MemDepUnit__2.insertedLoads              0                       # Number of loads inserted to the mem dependence unit. (Count)
system.cpu.MemDepUnit__2.insertedStores             0                       # Number of stores inserted to the mem dependence unit. (Count)
system.cpu.MemDepUnit__2.conflictingLoads            0                       # Number of conflicting loads. (Count)
system.cpu.MemDepUnit__2.conflictingStores            0                       # Number of conflicting stores. (Count)
system.cpu.MemDepUnit__3.insertedLoads              0                       # Number of loads inserted to the mem dependence unit. (Count)
system.cpu.MemDepUnit__3.insertedStores             0                       # Number of stores inserted to the mem dependence unit. (Count)
system.cpu.MemDepUnit__3.conflictingLoads            0                       # Number of conflicting loads. (Count)
system.cpu.MemDepUnit__3.conflictingStores            0                       # Number of conflicting stores. (Count)
system.cpu.branchPred.lookups               356613881                       # Number of BP lookups (Count)
system.cpu.branchPred.condPredicted         301610274                       # Number of conditional branches predicted (Count)
system.cpu.branchPred.condIncorrect          10421438                       # Number of conditional branches incorrect (Count)
system.cpu.branchPred.BTBLookups            153468529                       # Number of BTB lookups (Count)
system.cpu.branchPred.BTBHits               149778827                       # Number of BTB hits (Count)
system.cpu.branchPred.BTBHitRatio            0.975958                       # BTB Hit Ratio (Ratio)
system.cpu.branchPred.RASUsed                10731321                       # Number of times the RAS was used to get a target. (Count)
system.cpu.branchPred.RASIncorrect                 78                       # Number of incorrect RAS predictions. (Count)
system.cpu.branchPred.indirectLookups         2551756                       # Number of indirect predictor lookups. (Count)
system.cpu.branchPred.indirectHits            1338563                       # Number of indirect target hits. (Count)
system.cpu.branchPred.indirectMisses          1213193                       # Number of indirect misses. (Count)
system.cpu.branchPred.indirectMispredicted         9087                       # Number of mispredicted indirect branches. (Count)
system.cpu.commit.commitSquashedInsts       345564729                       # The number of squashed insts skipped by commit (Count)
system.cpu.commit.commitNonSpecStalls         3789440                       # The number of times commit has been forced to stall to communicate backwards (Count)
system.cpu.commit.branchMispredicts           8361618                       # The number of times a branch was mispredicted (Count)
system.cpu.commit.numCommittedDist::samples   4693420173                       # Number of insts commited each cycle (Count)
system.cpu.commit.numCommittedDist::mean     0.231044                       # Number of insts commited each cycle (Count)
system.cpu.commit.numCommittedDist::stdev     1.074678                       # Number of insts commited each cycle (Count)
system.cpu.commit.numCommittedDist::underflows            0      0.00%      0.00% # Number of insts commited each cycle (Count)
system.cpu.commit.numCommittedDist::0      4332987757     92.32%     92.32% # Number of insts commited each cycle (Count)
system.cpu.commit.numCommittedDist::1       168215858      3.58%     95.90% # Number of insts commited each cycle (Count)
system.cpu.commit.numCommittedDist::2        57221629      1.22%     97.12% # Number of insts commited each cycle (Count)
system.cpu.commit.numCommittedDist::3        21142805      0.45%     97.57% # Number of insts commited each cycle (Count)
system.cpu.commit.numCommittedDist::4        20947006      0.45%     98.02% # Number of insts commited each cycle (Count)
system.cpu.commit.numCommittedDist::5        19416582      0.41%     98.43% # Number of insts commited each cycle (Count)
system.cpu.commit.numCommittedDist::6         8538266      0.18%     98.62% # Number of insts commited each cycle (Count)
system.cpu.commit.numCommittedDist::7        13401659      0.29%     98.90% # Number of insts commited each cycle (Count)
system.cpu.commit.numCommittedDist::8        51548611      1.10%    100.00% # Number of insts commited each cycle (Count)
system.cpu.commit.numCommittedDist::overflows            0      0.00%    100.00% # Number of insts commited each cycle (Count)
system.cpu.commit.numCommittedDist::min_value            0                       # Number of insts commited each cycle (Count)
system.cpu.commit.numCommittedDist::max_value            8                       # Number of insts commited each cycle (Count)
system.cpu.commit.numCommittedDist::total   4693420173                       # Number of insts commited each cycle (Count)
system.cpu.commit.instsCommitted           1000000001                       # Number of instructions committed (Count)
system.cpu.commit.opsCommitted             1084388562                       # Number of ops (including micro ops) committed (Count)
system.cpu.commit.memRefs                   371594264                       # Number of memory references committed (Count)
system.cpu.commit.loads                     257232843                       # Number of loads committed (Count)
system.cpu.commit.amos                              0                       # Number of atomic instructions committed (Count)
system.cpu.commit.membars                     2526011                       # Number of memory barriers committed (Count)
system.cpu.commit.branches                  234516986                       # Number of branches committed (Count)
system.cpu.commit.vectorInstructions                0                       # Number of committed Vector instructions. (Count)
system.cpu.commit.floating                          0                       # Number of committed floating point instructions. (Count)
system.cpu.commit.integer                   857333723                       # Number of committed integer instructions. (Count)
system.cpu.commit.functionCalls               6817153                       # Number of function calls committed. (Count)
system.cpu.commit.committedInstType_0::No_OpClass            0      0.00%      0.00% # Class of committed instruction (Count)
system.cpu.commit.committedInstType_0::IntAlu    710093877     65.48%     65.48% # Class of committed instruction (Count)
system.cpu.commit.committedInstType_0::IntMult      2700418      0.25%     65.73% # Class of committed instruction (Count)
system.cpu.commit.committedInstType_0::IntDiv            0      0.00%     65.73% # Class of committed instruction (Count)
system.cpu.commit.committedInstType_0::FloatAdd            0      0.00%     65.73% # Class of committed instruction (Count)
system.cpu.commit.committedInstType_0::FloatCmp            0      0.00%     65.73% # Class of committed instruction (Count)
system.cpu.commit.committedInstType_0::FloatCvt            0      0.00%     65.73% # Class of committed instruction (Count)
system.cpu.commit.committedInstType_0::FloatMult            0      0.00%     65.73% # Class of committed instruction (Count)
system.cpu.commit.committedInstType_0::FloatMultAcc            0      0.00%     65.73% # Class of committed instruction (Count)
system.cpu.commit.committedInstType_0::FloatDiv            0      0.00%     65.73% # Class of committed instruction (Count)
system.cpu.commit.committedInstType_0::FloatMisc            0      0.00%     65.73% # Class of committed instruction (Count)
system.cpu.commit.committedInstType_0::FloatSqrt            0      0.00%     65.73% # Class of committed instruction (Count)
system.cpu.commit.committedInstType_0::SimdAdd            0      0.00%     65.73% # Class of committed instruction (Count)
system.cpu.commit.committedInstType_0::SimdAddAcc            0      0.00%     65.73% # Class of committed instruction (Count)
system.cpu.commit.committedInstType_0::SimdAlu            0      0.00%     65.73% # Class of committed instruction (Count)
system.cpu.commit.committedInstType_0::SimdCmp            0      0.00%     65.73% # Class of committed instruction (Count)
system.cpu.commit.committedInstType_0::SimdCvt            0      0.00%     65.73% # Class of committed instruction (Count)
system.cpu.commit.committedInstType_0::SimdMisc            0      0.00%     65.73% # Class of committed instruction (Count)
system.cpu.commit.committedInstType_0::SimdMult            0      0.00%     65.73% # Class of committed instruction (Count)
system.cpu.commit.committedInstType_0::SimdMultAcc            0      0.00%     65.73% # Class of committed instruction (Count)
system.cpu.commit.committedInstType_0::SimdShift            0      0.00%     65.73% # Class of committed instruction (Count)
system.cpu.commit.committedInstType_0::SimdShiftAcc            0      0.00%     65.73% # Class of committed instruction (Count)
system.cpu.commit.committedInstType_0::SimdDiv            0      0.00%     65.73% # Class of committed instruction (Count)
system.cpu.commit.committedInstType_0::SimdSqrt            0      0.00%     65.73% # Class of committed instruction (Count)
system.cpu.commit.committedInstType_0::SimdFloatAdd            0      0.00%     65.73% # Class of committed instruction (Count)
system.cpu.commit.committedInstType_0::SimdFloatAlu            0      0.00%     65.73% # Class of committed instruction (Count)
system.cpu.commit.committedInstType_0::SimdFloatCmp            0      0.00%     65.73% # Class of committed instruction (Count)
system.cpu.commit.committedInstType_0::SimdFloatCvt            0      0.00%     65.73% # Class of committed instruction (Count)
system.cpu.commit.committedInstType_0::SimdFloatDiv            0      0.00%     65.73% # Class of committed instruction (Count)
system.cpu.commit.committedInstType_0::SimdFloatMisc            3      0.00%     65.73% # Class of committed instruction (Count)
system.cpu.commit.committedInstType_0::SimdFloatMult            0      0.00%     65.73% # Class of committed instruction (Count)
system.cpu.commit.committedInstType_0::SimdFloatMultAcc            0      0.00%     65.73% # Class of committed instruction (Count)
system.cpu.commit.committedInstType_0::SimdFloatSqrt            0      0.00%     65.73% # Class of committed instruction (Count)
system.cpu.commit.committedInstType_0::SimdReduceAdd            0      0.00%     65.73% # Class of committed instruction (Count)
system.cpu.commit.committedInstType_0::SimdReduceAlu            0      0.00%     65.73% # Class of committed instruction (Count)
system.cpu.commit.committedInstType_0::SimdReduceCmp            0      0.00%     65.73% # Class of committed instruction (Count)
system.cpu.commit.committedInstType_0::SimdFloatReduceAdd            0      0.00%     65.73% # Class of committed instruction (Count)
system.cpu.commit.committedInstType_0::SimdFloatReduceCmp            0      0.00%     65.73% # Class of committed instruction (Count)
system.cpu.commit.committedInstType_0::SimdAes            0      0.00%     65.73% # Class of committed instruction (Count)
system.cpu.commit.committedInstType_0::SimdAesMix            0      0.00%     65.73% # Class of committed instruction (Count)
system.cpu.commit.committedInstType_0::SimdSha1Hash            0      0.00%     65.73% # Class of committed instruction (Count)
system.cpu.commit.committedInstType_0::SimdSha1Hash2            0      0.00%     65.73% # Class of committed instruction (Count)
system.cpu.commit.committedInstType_0::SimdSha256Hash            0      0.00%     65.73% # Class of committed instruction (Count)
system.cpu.commit.committedInstType_0::SimdSha256Hash2            0      0.00%     65.73% # Class of committed instruction (Count)
system.cpu.commit.committedInstType_0::SimdShaSigma2            0      0.00%     65.73% # Class of committed instruction (Count)
system.cpu.commit.committedInstType_0::SimdShaSigma3            0      0.00%     65.73% # Class of committed instruction (Count)
system.cpu.commit.committedInstType_0::SimdPredAlu            0      0.00%     65.73% # Class of committed instruction (Count)
system.cpu.commit.committedInstType_0::MemRead    257232843     23.72%     89.45% # Class of committed instruction (Count)
system.cpu.commit.committedInstType_0::MemWrite    114361421     10.55%    100.00% # Class of committed instruction (Count)
system.cpu.commit.committedInstType_0::FloatMemRead            0      0.00%    100.00% # Class of committed instruction (Count)
system.cpu.commit.committedInstType_0::FloatMemWrite            0      0.00%    100.00% # Class of committed instruction (Count)
system.cpu.commit.committedInstType_0::IprAccess            0      0.00%    100.00% # Class of committed instruction (Count)
system.cpu.commit.committedInstType_0::InstPrefetch            0      0.00%    100.00% # Class of committed instruction (Count)
system.cpu.commit.committedInstType_0::total   1084388562                       # Class of committed instruction (Count)
system.cpu.commit.commitEligibleSamples      51548611                       # number cycles where commit BW limit reached (Cycle)
system.cpu.dcache.demandHits::cpu.data      328893596                       # number of demand (read+write) hits (Count)
system.cpu.dcache.demandHits::total         328893596                       # number of demand (read+write) hits (Count)
system.cpu.dcache.overallHits::cpu.data     329112453                       # number of overall hits (Count)
system.cpu.dcache.overallHits::total        329112453                       # number of overall hits (Count)
system.cpu.dcache.demandMisses::cpu.data     70565538                       # number of demand (read+write) misses (Count)
system.cpu.dcache.demandMisses::total        70565538                       # number of demand (read+write) misses (Count)
system.cpu.dcache.overallMisses::cpu.data     70568706                       # number of overall misses (Count)
system.cpu.dcache.overallMisses::total       70568706                       # number of overall misses (Count)
system.cpu.dcache.demandMissLatency::cpu.data 3204464602955                       # number of demand (read+write) miss ticks (Tick)
system.cpu.dcache.demandMissLatency::total 3204464602955                       # number of demand (read+write) miss ticks (Tick)
system.cpu.dcache.overallMissLatency::cpu.data 3204464602955                       # number of overall miss ticks (Tick)
system.cpu.dcache.overallMissLatency::total 3204464602955                       # number of overall miss ticks (Tick)
system.cpu.dcache.demandAccesses::cpu.data    399459134                       # number of demand (read+write) accesses (Count)
system.cpu.dcache.demandAccesses::total     399459134                       # number of demand (read+write) accesses (Count)
system.cpu.dcache.overallAccesses::cpu.data    399681159                       # number of overall (read+write) accesses (Count)
system.cpu.dcache.overallAccesses::total    399681159                       # number of overall (read+write) accesses (Count)
system.cpu.dcache.demandMissRate::cpu.data     0.176653                       # miss rate for demand accesses (Ratio)
system.cpu.dcache.demandMissRate::total      0.176653                       # miss rate for demand accesses (Ratio)
system.cpu.dcache.overallMissRate::cpu.data     0.176563                       # miss rate for overall accesses (Ratio)
system.cpu.dcache.overallMissRate::total     0.176563                       # miss rate for overall accesses (Ratio)
system.cpu.dcache.demandAvgMissLatency::cpu.data 45411.183614                       # average overall miss latency in ticks ((Tick/Count))
system.cpu.dcache.demandAvgMissLatency::total 45411.183614                       # average overall miss latency in ticks ((Tick/Count))
system.cpu.dcache.overallAvgMissLatency::cpu.data 45409.144996                       # average overall miss latency ((Tick/Count))
system.cpu.dcache.overallAvgMissLatency::total 45409.144996                       # average overall miss latency ((Tick/Count))
system.cpu.dcache.blockedCycles::no_mshrs    880167943                       # number of cycles access was blocked (Cycle)
system.cpu.dcache.blockedCycles::no_targets       544903                       # number of cycles access was blocked (Cycle)
system.cpu.dcache.blockedCauses::no_mshrs     17366000                       # number of times access was blocked (Count)
system.cpu.dcache.blockedCauses::no_targets         8466                       # number of times access was blocked (Count)
system.cpu.dcache.avgBlocked::no_mshrs      50.683401                       # average number of cycles each access was blocked ((Cycle/Count))
system.cpu.dcache.avgBlocked::no_targets    64.363690                       # average number of cycles each access was blocked ((Cycle/Count))
system.cpu.dcache.writebacks::writebacks     10000620                       # number of writebacks (Count)
system.cpu.dcache.writebacks::total          10000620                       # number of writebacks (Count)
system.cpu.dcache.demandMshrHits::cpu.data     38058982                       # number of demand (read+write) MSHR hits (Count)
system.cpu.dcache.demandMshrHits::total      38058982                       # number of demand (read+write) MSHR hits (Count)
system.cpu.dcache.overallMshrHits::cpu.data     38058982                       # number of overall MSHR hits (Count)
system.cpu.dcache.overallMshrHits::total     38058982                       # number of overall MSHR hits (Count)
system.cpu.dcache.demandMshrMisses::cpu.data     32506556                       # number of demand (read+write) MSHR misses (Count)
system.cpu.dcache.demandMshrMisses::total     32506556                       # number of demand (read+write) MSHR misses (Count)
system.cpu.dcache.overallMshrMisses::cpu.data     32506860                       # number of overall MSHR misses (Count)
system.cpu.dcache.overallMshrMisses::total     32506860                       # number of overall MSHR misses (Count)
system.cpu.dcache.demandMshrMissLatency::cpu.data 1469562335173                       # number of demand (read+write) MSHR miss ticks (Tick)
system.cpu.dcache.demandMshrMissLatency::total 1469562335173                       # number of demand (read+write) MSHR miss ticks (Tick)
system.cpu.dcache.overallMshrMissLatency::cpu.data 1469566417273                       # number of overall MSHR miss ticks (Tick)
system.cpu.dcache.overallMshrMissLatency::total 1469566417273                       # number of overall MSHR miss ticks (Tick)
system.cpu.dcache.demandMshrMissRate::cpu.data     0.081376                       # mshr miss ratio for demand accesses (Ratio)
system.cpu.dcache.demandMshrMissRate::total     0.081376                       # mshr miss ratio for demand accesses (Ratio)
system.cpu.dcache.overallMshrMissRate::cpu.data     0.081332                       # mshr miss ratio for overall accesses (Ratio)
system.cpu.dcache.overallMshrMissRate::total     0.081332                       # mshr miss ratio for overall accesses (Ratio)
system.cpu.dcache.demandAvgMshrMissLatency::cpu.data 45208.183087                       # average overall mshr miss latency ((Tick/Count))
system.cpu.dcache.demandAvgMshrMissLatency::total 45208.183087                       # average overall mshr miss latency ((Tick/Count))
system.cpu.dcache.overallAvgMshrMissLatency::cpu.data 45207.885882                       # average overall mshr miss latency ((Tick/Count))
system.cpu.dcache.overallAvgMshrMissLatency::total 45207.885882                       # average overall mshr miss latency ((Tick/Count))
system.cpu.dcache.replacements               32506340                       # number of replacements (Count)
system.cpu.dcache.LoadLockedReq.hits::cpu.data      1263003                       # number of LoadLockedReq hits (Count)
system.cpu.dcache.LoadLockedReq.hits::total      1263003                       # number of LoadLockedReq hits (Count)
system.cpu.dcache.LoadLockedReq.misses::cpu.data            2                       # number of LoadLockedReq misses (Count)
system.cpu.dcache.LoadLockedReq.misses::total            2                       # number of LoadLockedReq misses (Count)
system.cpu.dcache.LoadLockedReq.missLatency::cpu.data       132800                       # number of LoadLockedReq miss ticks (Tick)
system.cpu.dcache.LoadLockedReq.missLatency::total       132800                       # number of LoadLockedReq miss ticks (Tick)
system.cpu.dcache.LoadLockedReq.accesses::cpu.data      1263005                       # number of LoadLockedReq accesses(hits+misses) (Count)
system.cpu.dcache.LoadLockedReq.accesses::total      1263005                       # number of LoadLockedReq accesses(hits+misses) (Count)
system.cpu.dcache.LoadLockedReq.missRate::cpu.data     0.000002                       # miss rate for LoadLockedReq accesses (Ratio)
system.cpu.dcache.LoadLockedReq.missRate::total     0.000002                       # miss rate for LoadLockedReq accesses (Ratio)
system.cpu.dcache.LoadLockedReq.avgMissLatency::cpu.data        66400                       # average LoadLockedReq miss latency ((Tick/Count))
system.cpu.dcache.LoadLockedReq.avgMissLatency::total        66400                       # average LoadLockedReq miss latency ((Tick/Count))
system.cpu.dcache.LoadLockedReq.mshrMisses::cpu.data            2                       # number of LoadLockedReq MSHR misses (Count)
system.cpu.dcache.LoadLockedReq.mshrMisses::total            2                       # number of LoadLockedReq MSHR misses (Count)
system.cpu.dcache.LoadLockedReq.mshrMissLatency::cpu.data       131800                       # number of LoadLockedReq MSHR miss ticks (Tick)
system.cpu.dcache.LoadLockedReq.mshrMissLatency::total       131800                       # number of LoadLockedReq MSHR miss ticks (Tick)
system.cpu.dcache.LoadLockedReq.mshrMissRate::cpu.data     0.000002                       # mshr miss rate for LoadLockedReq accesses (Ratio)
system.cpu.dcache.LoadLockedReq.mshrMissRate::total     0.000002                       # mshr miss rate for LoadLockedReq accesses (Ratio)
system.cpu.dcache.LoadLockedReq.avgMshrMissLatency::cpu.data        65900                       # average LoadLockedReq mshr miss latency ((Tick/Count))
system.cpu.dcache.LoadLockedReq.avgMshrMissLatency::total        65900                       # average LoadLockedReq mshr miss latency ((Tick/Count))
system.cpu.dcache.ReadReq.hits::cpu.data    221172686                       # number of ReadReq hits (Count)
system.cpu.dcache.ReadReq.hits::total       221172686                       # number of ReadReq hits (Count)
system.cpu.dcache.ReadReq.misses::cpu.data     67927413                       # number of ReadReq misses (Count)
system.cpu.dcache.ReadReq.misses::total      67927413                       # number of ReadReq misses (Count)
system.cpu.dcache.ReadReq.missLatency::cpu.data 3100800921200                       # number of ReadReq miss ticks (Tick)
system.cpu.dcache.ReadReq.missLatency::total 3100800921200                       # number of ReadReq miss ticks (Tick)
system.cpu.dcache.ReadReq.accesses::cpu.data    289100099                       # number of ReadReq accesses(hits+misses) (Count)
system.cpu.dcache.ReadReq.accesses::total    289100099                       # number of ReadReq accesses(hits+misses) (Count)
system.cpu.dcache.ReadReq.missRate::cpu.data     0.234962                       # miss rate for ReadReq accesses (Ratio)
system.cpu.dcache.ReadReq.missRate::total     0.234962                       # miss rate for ReadReq accesses (Ratio)
system.cpu.dcache.ReadReq.avgMissLatency::cpu.data 45648.741565                       # average ReadReq miss latency ((Tick/Count))
system.cpu.dcache.ReadReq.avgMissLatency::total 45648.741565                       # average ReadReq miss latency ((Tick/Count))
system.cpu.dcache.ReadReq.mshrHits::cpu.data     36209485                       # number of ReadReq MSHR hits (Count)
system.cpu.dcache.ReadReq.mshrHits::total     36209485                       # number of ReadReq MSHR hits (Count)
system.cpu.dcache.ReadReq.mshrMisses::cpu.data     31717928                       # number of ReadReq MSHR misses (Count)
system.cpu.dcache.ReadReq.mshrMisses::total     31717928                       # number of ReadReq MSHR misses (Count)
system.cpu.dcache.ReadReq.mshrMissLatency::cpu.data 1436094835400                       # number of ReadReq MSHR miss ticks (Tick)
system.cpu.dcache.ReadReq.mshrMissLatency::total 1436094835400                       # number of ReadReq MSHR miss ticks (Tick)
system.cpu.dcache.ReadReq.mshrMissRate::cpu.data     0.109713                       # mshr miss rate for ReadReq accesses (Ratio)
system.cpu.dcache.ReadReq.mshrMissRate::total     0.109713                       # mshr miss rate for ReadReq accesses (Ratio)
system.cpu.dcache.ReadReq.avgMshrMissLatency::cpu.data 45277.069656                       # average ReadReq mshr miss latency ((Tick/Count))
system.cpu.dcache.ReadReq.avgMshrMissLatency::total 45277.069656                       # average ReadReq mshr miss latency ((Tick/Count))
system.cpu.dcache.SoftPFReq.hits::cpu.data       218857                       # number of SoftPFReq hits (Count)
system.cpu.dcache.SoftPFReq.hits::total        218857                       # number of SoftPFReq hits (Count)
system.cpu.dcache.SoftPFReq.misses::cpu.data         3168                       # number of SoftPFReq misses (Count)
system.cpu.dcache.SoftPFReq.misses::total         3168                       # number of SoftPFReq misses (Count)
system.cpu.dcache.SoftPFReq.accesses::cpu.data       222025                       # number of SoftPFReq accesses(hits+misses) (Count)
system.cpu.dcache.SoftPFReq.accesses::total       222025                       # number of SoftPFReq accesses(hits+misses) (Count)
system.cpu.dcache.SoftPFReq.missRate::cpu.data     0.014269                       # miss rate for SoftPFReq accesses (Ratio)
system.cpu.dcache.SoftPFReq.missRate::total     0.014269                       # miss rate for SoftPFReq accesses (Ratio)
system.cpu.dcache.SoftPFReq.mshrMisses::cpu.data          304                       # number of SoftPFReq MSHR misses (Count)
system.cpu.dcache.SoftPFReq.mshrMisses::total          304                       # number of SoftPFReq MSHR misses (Count)
system.cpu.dcache.SoftPFReq.mshrMissLatency::cpu.data      4082100                       # number of SoftPFReq MSHR miss ticks (Tick)
system.cpu.dcache.SoftPFReq.mshrMissLatency::total      4082100                       # number of SoftPFReq MSHR miss ticks (Tick)
system.cpu.dcache.SoftPFReq.mshrMissRate::cpu.data     0.001369                       # mshr miss rate for SoftPFReq accesses (Ratio)
system.cpu.dcache.SoftPFReq.mshrMissRate::total     0.001369                       # mshr miss rate for SoftPFReq accesses (Ratio)
system.cpu.dcache.SoftPFReq.avgMshrMissLatency::cpu.data 13427.960526                       # average SoftPFReq mshr miss latency ((Tick/Count))
system.cpu.dcache.SoftPFReq.avgMshrMissLatency::total 13427.960526                       # average SoftPFReq mshr miss latency ((Tick/Count))
system.cpu.dcache.StoreCondReq.hits::cpu.data      1263005                       # number of StoreCondReq hits (Count)
system.cpu.dcache.StoreCondReq.hits::total      1263005                       # number of StoreCondReq hits (Count)
system.cpu.dcache.StoreCondReq.accesses::cpu.data      1263005                       # number of StoreCondReq accesses(hits+misses) (Count)
system.cpu.dcache.StoreCondReq.accesses::total      1263005                       # number of StoreCondReq accesses(hits+misses) (Count)
system.cpu.dcache.WriteReq.hits::cpu.data    107720910                       # number of WriteReq hits (Count)
system.cpu.dcache.WriteReq.hits::total      107720910                       # number of WriteReq hits (Count)
system.cpu.dcache.WriteReq.misses::cpu.data      2638125                       # number of WriteReq misses (Count)
system.cpu.dcache.WriteReq.misses::total      2638125                       # number of WriteReq misses (Count)
system.cpu.dcache.WriteReq.missLatency::cpu.data 103663681755                       # number of WriteReq miss ticks (Tick)
system.cpu.dcache.WriteReq.missLatency::total 103663681755                       # number of WriteReq miss ticks (Tick)
system.cpu.dcache.WriteReq.accesses::cpu.data    110359035                       # number of WriteReq accesses(hits+misses) (Count)
system.cpu.dcache.WriteReq.accesses::total    110359035                       # number of WriteReq accesses(hits+misses) (Count)
system.cpu.dcache.WriteReq.missRate::cpu.data     0.023905                       # miss rate for WriteReq accesses (Ratio)
system.cpu.dcache.WriteReq.missRate::total     0.023905                       # miss rate for WriteReq accesses (Ratio)
system.cpu.dcache.WriteReq.avgMissLatency::cpu.data 39294.454112                       # average WriteReq miss latency ((Tick/Count))
system.cpu.dcache.WriteReq.avgMissLatency::total 39294.454112                       # average WriteReq miss latency ((Tick/Count))
system.cpu.dcache.WriteReq.mshrHits::cpu.data      1849497                       # number of WriteReq MSHR hits (Count)
system.cpu.dcache.WriteReq.mshrHits::total      1849497                       # number of WriteReq MSHR hits (Count)
system.cpu.dcache.WriteReq.mshrMisses::cpu.data       788628                       # number of WriteReq MSHR misses (Count)
system.cpu.dcache.WriteReq.mshrMisses::total       788628                       # number of WriteReq MSHR misses (Count)
system.cpu.dcache.WriteReq.mshrMissLatency::cpu.data  33467499773                       # number of WriteReq MSHR miss ticks (Tick)
system.cpu.dcache.WriteReq.mshrMissLatency::total  33467499773                       # number of WriteReq MSHR miss ticks (Tick)
system.cpu.dcache.WriteReq.mshrMissRate::cpu.data     0.007146                       # mshr miss rate for WriteReq accesses (Ratio)
system.cpu.dcache.WriteReq.mshrMissRate::total     0.007146                       # mshr miss rate for WriteReq accesses (Ratio)
system.cpu.dcache.WriteReq.avgMshrMissLatency::cpu.data 42437.625564                       # average WriteReq mshr miss latency ((Tick/Count))
system.cpu.dcache.WriteReq.avgMshrMissLatency::total 42437.625564                       # average WriteReq mshr miss latency ((Tick/Count))
system.cpu.dcache.power_state.pwrStateResidencyTicks::UNDEFINED 948837396000                       # Cumulative time (in ticks) in various power states (Tick)
system.cpu.dcache.tags.tagsInUse           511.983529                       # Average ticks per tags in use ((Tick/Count))
system.cpu.dcache.tags.totalRefs            364145405                       # Total number of references to valid blocks. (Count)
system.cpu.dcache.tags.sampledRefs           32506852                       # Sample count of references to valid blocks. (Count)
system.cpu.dcache.tags.avgRefs              11.202112                       # Average number of references to valid blocks. ((Count/Count))
system.cpu.dcache.tags.warmupTick               96500                       # The tick when the warmup percentage was hit. (Tick)
system.cpu.dcache.tags.occupancies::cpu.data   511.983529                       # Average occupied blocks per tick, per requestor ((Count/Tick))
system.cpu.dcache.tags.avgOccs::cpu.data     0.999968                       # Average percentage of cache occupancy ((Ratio/Tick))
system.cpu.dcache.tags.avgOccs::total        0.999968                       # Average percentage of cache occupancy ((Ratio/Tick))
system.cpu.dcache.tags.occupanciesTaskId::1024          512                       # Occupied blocks per task id (Count)
system.cpu.dcache.tags.ageTaskId_1024::0          148                       # Occupied blocks per task id, per block age (Count)
system.cpu.dcache.tags.ageTaskId_1024::1          363                       # Occupied blocks per task id, per block age (Count)
system.cpu.dcache.tags.ageTaskId_1024::3            1                       # Occupied blocks per task id, per block age (Count)
system.cpu.dcache.tags.ratioOccsTaskId::1024            1                       # Ratio of occupied blocks and all blocks, per task id (Ratio)
system.cpu.dcache.tags.tagAccesses         1641335528                       # Number of tag accesses (Count)
system.cpu.dcache.tags.dataAccesses        1641335528                       # Number of data accesses (Count)
system.cpu.dcache.tags.power_state.pwrStateResidencyTicks::UNDEFINED 948837396000                       # Cumulative time (in ticks) in various power states (Tick)
system.cpu.decode.idleCycles                138104232                       # Number of cycles decode is idle (Cycle)
system.cpu.decode.blockedCycles            4346712125                       # Number of cycles decode is blocked (Cycle)
system.cpu.decode.runCycles                 206125112                       # Number of cycles decode is running (Cycle)
system.cpu.decode.unblockCycles              43913986                       # Number of cycles decode is unblocking (Cycle)
system.cpu.decode.squashCycles                9228149                       # Number of cycles decode is squashing (Cycle)
system.cpu.decode.branchResolved            140540940                       # Number of times decode resolved a branch (Count)
system.cpu.decode.branchMispred               2064041                       # Number of times decode detected a branch misprediction (Count)
system.cpu.decode.decodedInsts             1523926494                       # Number of instructions handled by decode (Count)
system.cpu.decode.squashedInsts               3620498                       # Number of squashed instructions handled by decode (Count)
system.cpu.fetch.icacheStallCycles          190057003                       # Number of cycles fetch is stalled on an Icache miss (Cycle)
system.cpu.fetch.insts                     1546835344                       # Number of instructions fetch has processed (Count)
system.cpu.fetch.branches                   356613881                       # Number of branches that fetch encountered (Count)
system.cpu.fetch.predictedBranches          161848711                       # Number of branches that fetch has predicted taken (Count)
system.cpu.fetch.cycles                    4542738018                       # Number of cycles fetch has run and was not squashing or blocked (Cycle)
system.cpu.fetch.squashCycles                22575978                       # Number of cycles fetch has spent squashing (Cycle)
system.cpu.fetch.miscStallCycles                  354                       # Number of cycles fetch has spent waiting on interrupts, or bad addresses, or out of MSHRs (Cycle)
system.cpu.fetch.pendingTrapStallCycles           175                       # Number of stall cycles due to pending traps (Cycle)
system.cpu.fetch.icacheWaitRetryStallCycles           65                       # Number of stall cycles due to full MSHR (Cycle)
system.cpu.fetch.cacheLines                 184506665                       # Number of cache lines fetched (Count)
system.cpu.fetch.icacheSquashes               3261426                       # Number of outstanding Icache misses that were squashed (Count)
system.cpu.fetch.nisnDist::samples         4744083604                       # Number of instructions fetched each cycle (Total) (Count)
system.cpu.fetch.nisnDist::mean              0.350794                       # Number of instructions fetched each cycle (Total) (Count)
system.cpu.fetch.nisnDist::stdev             1.452796                       # Number of instructions fetched each cycle (Total) (Count)
system.cpu.fetch.nisnDist::underflows               0      0.00%      0.00% # Number of instructions fetched each cycle (Total) (Count)
system.cpu.fetch.nisnDist::0               4422568969     93.22%     93.22% # Number of instructions fetched each cycle (Total) (Count)
system.cpu.fetch.nisnDist::1                 19259069      0.41%     93.63% # Number of instructions fetched each cycle (Total) (Count)
system.cpu.fetch.nisnDist::2                 48424980      1.02%     94.65% # Number of instructions fetched each cycle (Total) (Count)
system.cpu.fetch.nisnDist::3                 40061267      0.84%     95.49% # Number of instructions fetched each cycle (Total) (Count)
system.cpu.fetch.nisnDist::4                 29964130      0.63%     96.13% # Number of instructions fetched each cycle (Total) (Count)
system.cpu.fetch.nisnDist::5                 22743359      0.48%     96.60% # Number of instructions fetched each cycle (Total) (Count)
system.cpu.fetch.nisnDist::6                 39871019      0.84%     97.45% # Number of instructions fetched each cycle (Total) (Count)
system.cpu.fetch.nisnDist::7                 14424314      0.30%     97.75% # Number of instructions fetched each cycle (Total) (Count)
system.cpu.fetch.nisnDist::8                106766497      2.25%    100.00% # Number of instructions fetched each cycle (Total) (Count)
system.cpu.fetch.nisnDist::overflows                0      0.00%    100.00% # Number of instructions fetched each cycle (Total) (Count)
system.cpu.fetch.nisnDist::min_value                0                       # Number of instructions fetched each cycle (Total) (Count)
system.cpu.fetch.nisnDist::max_value                8                       # Number of instructions fetched each cycle (Total) (Count)
system.cpu.fetch.nisnDist::total           4744083604                       # Number of instructions fetched each cycle (Total) (Count)
system.cpu.fetch.branchRate                  0.075169                       # Number of branch fetches per cycle (Ratio)
system.cpu.fetch.rate                        0.326049                       # Number of inst fetches per cycle ((Count/Cycle))
system.cpu.icache.demandHits::cpu.inst      184505914                       # number of demand (read+write) hits (Count)
system.cpu.icache.demandHits::total         184505914                       # number of demand (read+write) hits (Count)
system.cpu.icache.overallHits::cpu.inst     184505914                       # number of overall hits (Count)
system.cpu.icache.overallHits::total        184505914                       # number of overall hits (Count)
system.cpu.icache.demandMisses::cpu.inst          749                       # number of demand (read+write) misses (Count)
system.cpu.icache.demandMisses::total             749                       # number of demand (read+write) misses (Count)
system.cpu.icache.overallMisses::cpu.inst          749                       # number of overall misses (Count)
system.cpu.icache.overallMisses::total            749                       # number of overall misses (Count)
system.cpu.icache.demandMissLatency::cpu.inst     51362499                       # number of demand (read+write) miss ticks (Tick)
system.cpu.icache.demandMissLatency::total     51362499                       # number of demand (read+write) miss ticks (Tick)
system.cpu.icache.overallMissLatency::cpu.inst     51362499                       # number of overall miss ticks (Tick)
system.cpu.icache.overallMissLatency::total     51362499                       # number of overall miss ticks (Tick)
system.cpu.icache.demandAccesses::cpu.inst    184506663                       # number of demand (read+write) accesses (Count)
system.cpu.icache.demandAccesses::total     184506663                       # number of demand (read+write) accesses (Count)
system.cpu.icache.overallAccesses::cpu.inst    184506663                       # number of overall (read+write) accesses (Count)
system.cpu.icache.overallAccesses::total    184506663                       # number of overall (read+write) accesses (Count)
system.cpu.icache.demandMissRate::cpu.inst     0.000004                       # miss rate for demand accesses (Ratio)
system.cpu.icache.demandMissRate::total      0.000004                       # miss rate for demand accesses (Ratio)
system.cpu.icache.overallMissRate::cpu.inst     0.000004                       # miss rate for overall accesses (Ratio)
system.cpu.icache.overallMissRate::total     0.000004                       # miss rate for overall accesses (Ratio)
system.cpu.icache.demandAvgMissLatency::cpu.inst 68574.765020                       # average overall miss latency in ticks ((Tick/Count))
system.cpu.icache.demandAvgMissLatency::total 68574.765020                       # average overall miss latency in ticks ((Tick/Count))
system.cpu.icache.overallAvgMissLatency::cpu.inst 68574.765020                       # average overall miss latency ((Tick/Count))
system.cpu.icache.overallAvgMissLatency::total 68574.765020                       # average overall miss latency ((Tick/Count))
system.cpu.icache.blockedCycles::no_mshrs         3752                       # number of cycles access was blocked (Cycle)
system.cpu.icache.blockedCycles::no_targets            0                       # number of cycles access was blocked (Cycle)
system.cpu.icache.blockedCauses::no_mshrs           16                       # number of times access was blocked (Count)
system.cpu.icache.blockedCauses::no_targets            0                       # number of times access was blocked (Count)
system.cpu.icache.avgBlocked::no_mshrs     234.500000                       # average number of cycles each access was blocked ((Cycle/Count))
system.cpu.icache.avgBlocked::no_targets          nan                       # average number of cycles each access was blocked ((Cycle/Count))
system.cpu.icache.demandMshrHits::cpu.inst          181                       # number of demand (read+write) MSHR hits (Count)
system.cpu.icache.demandMshrHits::total           181                       # number of demand (read+write) MSHR hits (Count)
system.cpu.icache.overallMshrHits::cpu.inst          181                       # number of overall MSHR hits (Count)
system.cpu.icache.overallMshrHits::total          181                       # number of overall MSHR hits (Count)
system.cpu.icache.demandMshrMisses::cpu.inst          568                       # number of demand (read+write) MSHR misses (Count)
system.cpu.icache.demandMshrMisses::total          568                       # number of demand (read+write) MSHR misses (Count)
system.cpu.icache.overallMshrMisses::cpu.inst          568                       # number of overall MSHR misses (Count)
system.cpu.icache.overallMshrMisses::total          568                       # number of overall MSHR misses (Count)
system.cpu.icache.demandMshrMissLatency::cpu.inst     40660399                       # number of demand (read+write) MSHR miss ticks (Tick)
system.cpu.icache.demandMshrMissLatency::total     40660399                       # number of demand (read+write) MSHR miss ticks (Tick)
system.cpu.icache.overallMshrMissLatency::cpu.inst     40660399                       # number of overall MSHR miss ticks (Tick)
system.cpu.icache.overallMshrMissLatency::total     40660399                       # number of overall MSHR miss ticks (Tick)
system.cpu.icache.demandMshrMissRate::cpu.inst     0.000003                       # mshr miss ratio for demand accesses (Ratio)
system.cpu.icache.demandMshrMissRate::total     0.000003                       # mshr miss ratio for demand accesses (Ratio)
system.cpu.icache.overallMshrMissRate::cpu.inst     0.000003                       # mshr miss ratio for overall accesses (Ratio)
system.cpu.icache.overallMshrMissRate::total     0.000003                       # mshr miss ratio for overall accesses (Ratio)
system.cpu.icache.demandAvgMshrMissLatency::cpu.inst 71585.209507                       # average overall mshr miss latency ((Tick/Count))
system.cpu.icache.demandAvgMshrMissLatency::total 71585.209507                       # average overall mshr miss latency ((Tick/Count))
system.cpu.icache.overallAvgMshrMissLatency::cpu.inst 71585.209507                       # average overall mshr miss latency ((Tick/Count))
system.cpu.icache.overallAvgMshrMissLatency::total 71585.209507                       # average overall mshr miss latency ((Tick/Count))
system.cpu.icache.replacements                    121                       # number of replacements (Count)
system.cpu.icache.ReadReq.hits::cpu.inst    184505914                       # number of ReadReq hits (Count)
system.cpu.icache.ReadReq.hits::total       184505914                       # number of ReadReq hits (Count)
system.cpu.icache.ReadReq.misses::cpu.inst          749                       # number of ReadReq misses (Count)
system.cpu.icache.ReadReq.misses::total           749                       # number of ReadReq misses (Count)
system.cpu.icache.ReadReq.missLatency::cpu.inst     51362499                       # number of ReadReq miss ticks (Tick)
system.cpu.icache.ReadReq.missLatency::total     51362499                       # number of ReadReq miss ticks (Tick)
system.cpu.icache.ReadReq.accesses::cpu.inst    184506663                       # number of ReadReq accesses(hits+misses) (Count)
system.cpu.icache.ReadReq.accesses::total    184506663                       # number of ReadReq accesses(hits+misses) (Count)
system.cpu.icache.ReadReq.missRate::cpu.inst     0.000004                       # miss rate for ReadReq accesses (Ratio)
system.cpu.icache.ReadReq.missRate::total     0.000004                       # miss rate for ReadReq accesses (Ratio)
system.cpu.icache.ReadReq.avgMissLatency::cpu.inst 68574.765020                       # average ReadReq miss latency ((Tick/Count))
system.cpu.icache.ReadReq.avgMissLatency::total 68574.765020                       # average ReadReq miss latency ((Tick/Count))
system.cpu.icache.ReadReq.mshrHits::cpu.inst          181                       # number of ReadReq MSHR hits (Count)
system.cpu.icache.ReadReq.mshrHits::total          181                       # number of ReadReq MSHR hits (Count)
system.cpu.icache.ReadReq.mshrMisses::cpu.inst          568                       # number of ReadReq MSHR misses (Count)
system.cpu.icache.ReadReq.mshrMisses::total          568                       # number of ReadReq MSHR misses (Count)
system.cpu.icache.ReadReq.mshrMissLatency::cpu.inst     40660399                       # number of ReadReq MSHR miss ticks (Tick)
system.cpu.icache.ReadReq.mshrMissLatency::total     40660399                       # number of ReadReq MSHR miss ticks (Tick)
system.cpu.icache.ReadReq.mshrMissRate::cpu.inst     0.000003                       # mshr miss rate for ReadReq accesses (Ratio)
system.cpu.icache.ReadReq.mshrMissRate::total     0.000003                       # mshr miss rate for ReadReq accesses (Ratio)
system.cpu.icache.ReadReq.avgMshrMissLatency::cpu.inst 71585.209507                       # average ReadReq mshr miss latency ((Tick/Count))
system.cpu.icache.ReadReq.avgMshrMissLatency::total 71585.209507                       # average ReadReq mshr miss latency ((Tick/Count))
system.cpu.icache.power_state.pwrStateResidencyTicks::UNDEFINED 948837396000                       # Cumulative time (in ticks) in various power states (Tick)
system.cpu.icache.tags.tagsInUse           431.487024                       # Average ticks per tags in use ((Tick/Count))
system.cpu.icache.tags.totalRefs            184506482                       # Total number of references to valid blocks. (Count)
system.cpu.icache.tags.sampledRefs                568                       # Sample count of references to valid blocks. (Count)
system.cpu.icache.tags.avgRefs           324835.355634                       # Average number of references to valid blocks. ((Count/Count))
system.cpu.icache.tags.warmupTick               82000                       # The tick when the warmup percentage was hit. (Tick)
system.cpu.icache.tags.occupancies::cpu.inst   431.487024                       # Average occupied blocks per tick, per requestor ((Count/Tick))
system.cpu.icache.tags.avgOccs::cpu.inst     0.842748                       # Average percentage of cache occupancy ((Ratio/Tick))
system.cpu.icache.tags.avgOccs::total        0.842748                       # Average percentage of cache occupancy ((Ratio/Tick))
system.cpu.icache.tags.occupanciesTaskId::1024          437                       # Occupied blocks per task id (Count)
system.cpu.icache.tags.ageTaskId_1024::4          437                       # Occupied blocks per task id, per block age (Count)
system.cpu.icache.tags.ratioOccsTaskId::1024     0.853516                       # Ratio of occupied blocks and all blocks, per task id (Ratio)
system.cpu.icache.tags.tagAccesses          738027220                       # Number of tag accesses (Count)
system.cpu.icache.tags.dataAccesses         738027220                       # Number of data accesses (Count)
system.cpu.icache.tags.power_state.pwrStateResidencyTicks::UNDEFINED 948837396000                       # Cumulative time (in ticks) in various power states (Tick)
system.cpu.iew.idleCycles                           0                       # Number of cycles IEW is idle (Cycle)
system.cpu.iew.squashCycles                   9228149                       # Number of cycles IEW is squashing (Cycle)
system.cpu.iew.blockCycles                 3470572151                       # Number of cycles IEW is blocking (Cycle)
system.cpu.iew.unblockCycles                278097395                       # Number of cycles IEW is unblocking (Cycle)
system.cpu.iew.dispatchedInsts             1428757582                       # Number of instructions dispatched to IQ (Count)
system.cpu.iew.dispSquashedInsts              3157911                       # Number of squashed instructions skipped by dispatch (Count)
system.cpu.iew.dispLoadInsts                348270906                       # Number of dispatched load instructions (Count)
system.cpu.iew.dispStoreInsts               143902447                       # Number of dispatched store instructions (Count)
system.cpu.iew.dispNonSpecInsts               1270658                       # Number of dispatched non-speculative instructions (Count)
system.cpu.iew.iqFullEvents                   6786064                       # Number of times the IQ has become full, causing a stall (Count)
system.cpu.iew.lsqFullEvents                262389707                       # Number of times the LSQ has become full, causing a stall (Count)
system.cpu.iew.memOrderViolationEvents         869586                       # Number of memory order violations (Count)
system.cpu.iew.predictedTakenIncorrect        4348427                       # Number of branches that were predicted taken incorrectly (Count)
system.cpu.iew.predictedNotTakenIncorrect      5106562                       # Number of branches that were predicted not taken incorrectly (Count)
system.cpu.iew.branchMispredicts              9454989                       # Number of branch mispredicts detected at execute (Count)
system.cpu.iew.instsToCommit               1246190732                       # Cumulative count of insts sent to commit (Count)
system.cpu.iew.writebackCount              1241754779                       # Cumulative count of insts written-back (Count)
system.cpu.iew.producerInst                 684674784                       # Number of instructions producing a value (Count)
system.cpu.iew.consumerInst                1207080670                       # Number of instructions consuming a value (Count)
system.cpu.iew.wbRate                        0.261742                       # Insts written-back per cycle ((Count/Cycle))
system.cpu.iew.wbFanout                      0.567215                       # Average fanout of values written-back ((Count/Count))
system.cpu.lsq0.forwLoads                    13383655                       # Number of loads that had data forwarded from stores (Count)
system.cpu.lsq0.squashedLoads                91038041                       # Number of loads squashed (Count)
system.cpu.lsq0.ignoredResponses               253408                       # Number of memory responses ignored because the instruction is squashed (Count)
system.cpu.lsq0.memOrderViolation              869586                       # Number of memory ordering violations (Count)
system.cpu.lsq0.squashedStores               29541023                       # Number of stores squashed (Count)
system.cpu.lsq0.rescheduledLoads              5107707                       # Number of loads that were rescheduled (Count)
system.cpu.lsq0.blockedByCache               16923178                       # Number of times an access to memory failed due to the cache being blocked (Count)
system.cpu.lsq0.loadToUse::samples          257022175                       # Distribution of cycle latency between the first time a load is issued and its completion (Unspecified)
system.cpu.lsq0.loadToUse::mean             62.189605                       # Distribution of cycle latency between the first time a load is issued and its completion (Unspecified)
system.cpu.lsq0.loadToUse::stdev           165.709264                       # Distribution of cycle latency between the first time a load is issued and its completion (Unspecified)
system.cpu.lsq0.loadToUse::0-9              195973681     76.25%     76.25% # Distribution of cycle latency between the first time a load is issued and its completion (Unspecified)
system.cpu.lsq0.loadToUse::10-19              2292132      0.89%     77.14% # Distribution of cycle latency between the first time a load is issued and its completion (Unspecified)
system.cpu.lsq0.loadToUse::20-29              1666372      0.65%     77.79% # Distribution of cycle latency between the first time a load is issued and its completion (Unspecified)
system.cpu.lsq0.loadToUse::30-39              1797056      0.70%     78.49% # Distribution of cycle latency between the first time a load is issued and its completion (Unspecified)
system.cpu.lsq0.loadToUse::40-49              1357719      0.53%     79.02% # Distribution of cycle latency between the first time a load is issued and its completion (Unspecified)
system.cpu.lsq0.loadToUse::50-59              1146835      0.45%     79.46% # Distribution of cycle latency between the first time a load is issued and its completion (Unspecified)
[...]
system.mem_ctrl.dram.perBankRdBursts::8        479701                       # Per bank write bursts (Count)
system.mem_ctrl.dram.perBankRdBursts::9        479828                       # Per bank write bursts (Count)
system.mem_ctrl.dram.perBankRdBursts::10       466947                       # Per bank write bursts (Count)
system.mem_ctrl.dram.perBankRdBursts::11       466159                       # Per bank write bursts (Count)
system.mem_ctrl.dram.perBankRdBursts::12       446872                       # Per bank write bursts (Count)
system.mem_ctrl.dram.perBankRdBursts::13       461336                       # Per bank write bursts (Count)
system.mem_ctrl.dram.perBankRdBursts::14       458389                       # Per bank write bursts (Count)
system.mem_ctrl.dram.perBankRdBursts::15       459783                       # Per bank write bursts (Count)
system.mem_ctrl.dram.perBankRdBursts::16       445982                       # Per bank write bursts (Count)
system.mem_ctrl.dram.perBankRdBursts::17       461310                       # Per bank write bursts (Count)
system.mem_ctrl.dram.perBankRdBursts::18       430860                       # Per bank write bursts (Count)
system.mem_ctrl.dram.perBankRdBursts::19       447272                       # Per bank write bursts (Count)
system.mem_ctrl.dram.perBankRdBursts::20       438984                       # Per bank write bursts (Count)
system.mem_ctrl.dram.perBankRdBursts::21       456664                       # Per bank write bursts (Count)
system.mem_ctrl.dram.perBankRdBursts::22       448539                       # Per bank write bursts (Count)
system.mem_ctrl.dram.perBankRdBursts::23       465613                       # Per bank write bursts (Count)
system.mem_ctrl.dram.perBankRdBursts::24       474042                       # Per bank write bursts (Count)
system.mem_ctrl.dram.perBankRdBursts::25       464661                       # Per bank write bursts (Count)
system.mem_ctrl.dram.perBankRdBursts::26       462092                       # Per bank write bursts (Count)
system.mem_ctrl.dram.perBankRdBursts::27       470771                       # Per bank write bursts (Count)
system.mem_ctrl.dram.perBankRdBursts::28       468419                       # Per bank write bursts (Count)
system.mem_ctrl.dram.perBankRdBursts::29       469951                       # Per bank write bursts (Count)
system.mem_ctrl.dram.perBankRdBursts::30       482531                       # Per bank write bursts (Count)
system.mem_ctrl.dram.perBankRdBursts::31       466555                       # Per bank write bursts (Count)
system.mem_ctrl.dram.perBankWrBursts::0        179801                       # Per bank write bursts (Count)
system.mem_ctrl.dram.perBankWrBursts::1        172914                       # Per bank write bursts (Count)
system.mem_ctrl.dram.perBankWrBursts::2        180282                       # Per bank write bursts (Count)
system.mem_ctrl.dram.perBankWrBursts::3        172749                       # Per bank write bursts (Count)
system.mem_ctrl.dram.perBankWrBursts::4        178770                       # Per bank write bursts (Count)
system.mem_ctrl.dram.perBankWrBursts::5        172116                       # Per bank write bursts (Count)
system.mem_ctrl.dram.perBankWrBursts::6        180188                       # Per bank write bursts (Count)
system.mem_ctrl.dram.perBankWrBursts::7        171606                       # Per bank write bursts (Count)
system.mem_ctrl.dram.perBankWrBursts::8        179846                       # Per bank write bursts (Count)
system.mem_ctrl.dram.perBankWrBursts::9        179991                       # Per bank write bursts (Count)
system.mem_ctrl.dram.perBankWrBursts::10       172404                       # Per bank write bursts (Count)
system.mem_ctrl.dram.perBankWrBursts::11       179253                       # Per bank write bursts (Count)
system.mem_ctrl.dram.perBankWrBursts::12       171848                       # Per bank write bursts (Count)
system.mem_ctrl.dram.perBankWrBursts::13       179155                       # Per bank write bursts (Count)
system.mem_ctrl.dram.perBankWrBursts::14       176988                       # Per bank write bursts (Count)
system.mem_ctrl.dram.perBankWrBursts::15       179165                       # Per bank write bursts (Count)
system.mem_ctrl.dram.perBankWrBursts::16       172885                       # Per bank write bursts (Count)
system.mem_ctrl.dram.perBankWrBursts::17       178995                       # Per bank write bursts (Count)
system.mem_ctrl.dram.perBankWrBursts::18       163607                       # Per bank write bursts (Count)
system.mem_ctrl.dram.perBankWrBursts::19       178716                       # Per bank write bursts (Count)
system.mem_ctrl.dram.perBankWrBursts::20       163678                       # Per bank write bursts (Count)
system.mem_ctrl.dram.perBankWrBursts::21       180882                       # Per bank write bursts (Count)
system.mem_ctrl.dram.perBankWrBursts::22       172693                       # Per bank write bursts (Count)
system.mem_ctrl.dram.perBankWrBursts::23       179469                       # Per bank write bursts (Count)
system.mem_ctrl.dram.perBankWrBursts::24       172787                       # Per bank write bursts (Count)
system.mem_ctrl.dram.perBankWrBursts::25       179919                       # Per bank write bursts (Count)
system.mem_ctrl.dram.perBankWrBursts::26       172669                       # Per bank write bursts (Count)
system.mem_ctrl.dram.perBankWrBursts::27       180221                       # Per bank write bursts (Count)
system.mem_ctrl.dram.perBankWrBursts::28       179895                       # Per bank write bursts (Count)
system.mem_ctrl.dram.perBankWrBursts::29       172478                       # Per bank write bursts (Count)
system.mem_ctrl.dram.perBankWrBursts::30       179438                       # Per bank write bursts (Count)
system.mem_ctrl.dram.perBankWrBursts::31       172125                       # Per bank write bursts (Count)
system.mem_ctrl.dram.totQLat             295706850106                       # Total ticks spent queuing (Tick)
system.mem_ctrl.dram.totBusLat            49595617148                       # Total ticks spent in databus transfers (Tick)
system.mem_ctrl.dram.totMemAccLat        556068955494                       # Total ticks spent from burst creation until serviced by the DRAM (Tick)
system.mem_ctrl.dram.avgQLat                 19866.58                       # Average queueing delay per DRAM burst ((Tick/Count))
system.mem_ctrl.dram.avgBusLat                3332.00                       # Average bus latency per DRAM burst ((Tick/Count))
system.mem_ctrl.dram.avgMemAccLat            37358.58                       # Average memory access latency per DRAM burst ((Tick/Count))
system.mem_ctrl.dram.readRowHits              7060051                       # Number of row buffer hits during reads (Count)
system.mem_ctrl.dram.writeRowHits             2832013                       # Number of row buffer hits during writes (Count)
system.mem_ctrl.dram.readRowHitRate             47.43                       # Row buffer hit rate for reads (Ratio)
system.mem_ctrl.dram.writeRowHitRate            50.32                       # Row buffer hit rate for writes (Ratio)
system.mem_ctrl.dram.bytesPerActivate::samples     10620107                       # Bytes accessed per row activation (Byte)
system.mem_ctrl.dram.bytesPerActivate::mean   123.612591                       # Bytes accessed per row activation (Byte)
system.mem_ctrl.dram.bytesPerActivate::gmean    85.615136                       # Bytes accessed per row activation (Byte)
system.mem_ctrl.dram.bytesPerActivate::stdev   179.557883                       # Bytes accessed per row activation (Byte)
system.mem_ctrl.dram.bytesPerActivate::0-127      8354118     78.66%     78.66% # Bytes accessed per row activation (Byte)
system.mem_ctrl.dram.bytesPerActivate::128-255      1283218     12.08%     90.75% # Bytes accessed per row activation (Byte)
system.mem_ctrl.dram.bytesPerActivate::256-383       253128      2.38%     93.13% # Bytes accessed per row activation (Byte)
system.mem_ctrl.dram.bytesPerActivate::384-511       181330      1.71%     94.84% # Bytes accessed per row activation (Byte)
system.mem_ctrl.dram.bytesPerActivate::512-639       126969      1.20%     96.03% # Bytes accessed per row activation (Byte)
system.mem_ctrl.dram.bytesPerActivate::640-767        85066      0.80%     96.83% # Bytes accessed per row activation (Byte)
system.mem_ctrl.dram.bytesPerActivate::768-895        62429      0.59%     97.42% # Bytes accessed per row activation (Byte)
system.mem_ctrl.dram.bytesPerActivate::896-1023        48284      0.45%     97.88% # Bytes accessed per row activation (Byte)
system.mem_ctrl.dram.bytesPerActivate::1024-1151       225565      2.12%    100.00% # Bytes accessed per row activation (Byte)
system.mem_ctrl.dram.bytesPerActivate::total     10620107                       # Bytes accessed per row activation (Byte)
system.mem_ctrl.dram.bytesRead              952616896                       # Total bytes read (Byte)
system.mem_ctrl.dram.bytesWritten           360162112                       # Total bytes written (Byte)
system.mem_ctrl.dram.avgRdBW              1003.983296                       # Average DRAM read bandwidth in MiBytes/s ((Byte/Second))
system.mem_ctrl.dram.avgWrBW               379.582543                       # Average DRAM write bandwidth in MiBytes/s ((Byte/Second))
system.mem_ctrl.dram.peakBW                  19207.00                       # Theoretical peak bandwidth in MiByte/s ((Byte/Second))
system.mem_ctrl.dram.busUtil                     7.20                       # Data bus utilization in percentage (Ratio)
system.mem_ctrl.dram.busUtilRead                 5.23                       # Data bus utilization in percentage for reads (Ratio)
system.mem_ctrl.dram.busUtilWrite                1.98                       # Data bus utilization in percentage for writes (Ratio)
system.mem_ctrl.dram.pageHitRate                48.23                       # Row buffer hit rate, read and write combined (Ratio)
system.mem_ctrl.dram.power_state.pwrStateResidencyTicks::UNDEFINED 948837396000                       # Cumulative time (in ticks) in various power states (Tick)
system.mem_ctrl.dram.rank0.actEnergy     16599183269.759081                       # Energy for activate commands per rank (pJ) (Joule)
system.mem_ctrl.dram.rank0.preEnergy     22068397200.762909                       # Energy for precharge commands per rank (pJ) (Joule)
system.mem_ctrl.dram.rank0.readEnergy    31675218586.502090                       # Energy for read commands per rank (pJ) (Joule)
system.mem_ctrl.dram.rank0.writeEnergy   10625553837.696396                       # Energy for write commands per rank (pJ) (Joule)
system.mem_ctrl.dram.rank0.refreshEnergy 168831815293.725769                       # Energy for refresh commands per rank (pJ) (Joule)
system.mem_ctrl.dram.rank0.actBackEnergy 692286747850.506104                       # Energy for active background per rank (pJ) (Joule)
system.mem_ctrl.dram.rank0.preBackEnergy 87474511713.715576                       # Energy for precharge background per rank (pJ) (Joule)
system.mem_ctrl.dram.rank0.actPowerDownEnergy            0                       # Energy for active power-down per rank (pJ) (Joule)
system.mem_ctrl.dram.rank0.prePowerDownEnergy            0                       # Energy for precharge power-down per rank (pJ) (Joule)
system.mem_ctrl.dram.rank0.selfRefreshEnergy            0                       # Energy for self refresh per rank (pJ) (Joule)
system.mem_ctrl.dram.rank0.totalEnergy   1029561427753.175781                       # Total energy per rank (pJ) (Joule)
system.mem_ctrl.dram.rank0.averagePower   1085.076781                       # Core power per rank (mW) (Watt)
system.mem_ctrl.dram.rank0.totalIdleTime            0                       # Total Idle time Per DRAM Rank (Tick)
system.mem_ctrl.dram.rank0.pwrStateTime::IDLE 129348821800                       # Time in different power states (Tick)
system.mem_ctrl.dram.rank0.pwrStateTime::REF  42653450000                       # Time in different power states (Tick)
system.mem_ctrl.dram.rank0.pwrStateTime::SREF            0                       # Time in different power states (Tick)
system.mem_ctrl.dram.rank0.pwrStateTime::PRE_PDN            0                       # Time in different power states (Tick)
system.mem_ctrl.dram.rank0.pwrStateTime::ACT 776835124200                       # Time in different power states (Tick)
system.mem_ctrl.dram.rank0.pwrStateTime::ACT_PDN            0                       # Time in different power states (Tick)
system.mem_ctrl.dram.rank1.actEnergy     16522299795.455210                       # Energy for activate commands per rank (pJ) (Joule)
system.mem_ctrl.dram.rank1.preEnergy     21966185753.701565                       # Energy for precharge commands per rank (pJ) (Joule)
system.mem_ctrl.dram.rank1.readEnergy    30934288501.133385                       # Energy for read commands per rank (pJ) (Joule)
system.mem_ctrl.dram.rank1.writeEnergy   10525506432.672312                       # Energy for write commands per rank (pJ) (Joule)
system.mem_ctrl.dram.rank1.refreshEnergy 168831815293.725769                       # Energy for refresh commands per rank (pJ) (Joule)
system.mem_ctrl.dram.rank1.actBackEnergy 690965926786.345947                       # Energy for active background per rank (pJ) (Joule)
system.mem_ctrl.dram.rank1.preBackEnergy 88489379876.008453                       # Energy for precharge background per rank (pJ) (Joule)
system.mem_ctrl.dram.rank1.actPowerDownEnergy            0                       # Energy for active power-down per rank (pJ) (Joule)
system.mem_ctrl.dram.rank1.prePowerDownEnergy            0                       # Energy for precharge power-down per rank (pJ) (Joule)
system.mem_ctrl.dram.rank1.selfRefreshEnergy            0                       # Energy for self refresh per rank (pJ) (Joule)
system.mem_ctrl.dram.rank1.totalEnergy   1028235402439.558838                       # Total energy per rank (pJ) (Joule)
system.mem_ctrl.dram.rank1.averagePower   1083.679255                       # Core power per rank (mW) (Watt)
system.mem_ctrl.dram.rank1.totalIdleTime            0                       # Total Idle time Per DRAM Rank (Tick)
system.mem_ctrl.dram.rank1.pwrStateTime::IDLE 131017324844                       # Time in different power states (Tick)
system.mem_ctrl.dram.rank1.pwrStateTime::REF  42653450000                       # Time in different power states (Tick)
system.mem_ctrl.dram.rank1.pwrStateTime::SREF            0                       # Time in different power states (Tick)
system.mem_ctrl.dram.rank1.pwrStateTime::PRE_PDN            0                       # Time in different power states (Tick)
system.mem_ctrl.dram.rank1.pwrStateTime::ACT 775166621156                       # Time in different power states (Tick)
system.mem_ctrl.dram.rank1.pwrStateTime::ACT_PDN            0                       # Time in different power states (Tick)
system.mem_ctrl.power_state.pwrStateResidencyTicks::UNDEFINED 948837396000                       # Cumulative time (in ticks) in various power states (Tick)
system.membus.transDist::ReadResp            14576632                       # Transaction distribution (Count)
system.membus.transDist::WritebackDirty       5627597                       # Transaction distribution (Count)
system.membus.transDist::CleanEvict           9230330                       # Transaction distribution (Count)
system.membus.transDist::UpgradeReq                 7                       # Transaction distribution (Count)
system.membus.transDist::ReadExReq             314800                       # Transaction distribution (Count)
system.membus.transDist::ReadExResp            314800                       # Transaction distribution (Count)
system.membus.transDist::ReadSharedReq       14576632                       # Transaction distribution (Count)
system.membus.pktCount_system.l2cache.mem_side_port::system.mem_ctrl.port     44640798                       # Packet count per connected requestor and responder (Count)
system.membus.pktCount::total                44640798                       # Packet count per connected requestor and responder (Count)
system.membus.pktSize_system.l2cache.mem_side_port::system.mem_ctrl.port   1313217856                       # Cumulative packet size per connected requestor and responder (Byte)
system.membus.pktSize::total               1313217856                       # Cumulative packet size per connected requestor and responder (Byte)
system.membus.snoops                                0                       # Total snoops (Count)
system.membus.snoopTraffic                          0                       # Total snoop traffic (Byte)
system.membus.snoopFanout::samples           14891439                       # Request fanout histogram (Count)
system.membus.snoopFanout::mean                     0                       # Request fanout histogram (Count)
system.membus.snoopFanout::stdev                    0                       # Request fanout histogram (Count)
system.membus.snoopFanout::underflows               0      0.00%      0.00% # Request fanout histogram (Count)
system.membus.snoopFanout::0                 14891439    100.00%    100.00% # Request fanout histogram (Count)
system.membus.snoopFanout::1                        0      0.00%    100.00% # Request fanout histogram (Count)
system.membus.snoopFanout::overflows                0      0.00%    100.00% # Request fanout histogram (Count)
system.membus.snoopFanout::min_value                0                       # Request fanout histogram (Count)
system.membus.snoopFanout::max_value                0                       # Request fanout histogram (Count)
system.membus.snoopFanout::total             14891439                       # Request fanout histogram (Count)
system.membus.power_state.pwrStateResidencyTicks::UNDEFINED 948837396000                       # Cumulative time (in ticks) in various power states (Tick)
system.membus.reqLayer0.occupancy         27317965400                       # Layer occupancy (ticks) (Tick)
system.membus.reqLayer0.utilization               0.0                       # Layer utilization (Ratio)
system.membus.respLayer0.occupancy        39222307736                       # Layer occupancy (ticks) (Tick)
system.membus.respLayer0.utilization              0.0                       # Layer utilization (Ratio)
system.membus.snoop_filter.totRequests       29749366                       # Total number of requests made to the snoop filter. (Count)
system.membus.snoop_filter.hitSingleRequests     14858236                       # Number of requests hitting in the snoop filter with a single holder of the requested data. (Count)
system.membus.snoop_filter.hitMultiRequests            0                       # Number of requests hitting in the snoop filter with multiple (>1) holders of the requested data. (Count)
system.membus.snoop_filter.totSnoops                0                       # Total number of snoops made to the snoop filter. (Count)
system.membus.snoop_filter.hitSingleSnoops            0                       # Number of snoops hitting in the snoop filter with a single holder of the requested data. (Count)
system.membus.snoop_filter.hitMultiSnoops            0                       # Number of snoops hitting in the snoop filter with multiple (>1) holders of the requested data. (Count)
system.workload.inst.arm                            0                       # number of arm instructions executed (Count)
system.workload.inst.quiesce                        0                       # number of quiesce instructions executed (Count)

---------- End Simulation Statistics   ----------
