
---------- Begin Simulation Statistics ----------
simSeconds                                   1.770743                       # Number of seconds simulated (Second)
simTicks                                 1770743346187                       # Number of ticks simulated (Tick)
finalTick                                1770743346187                       # Number of ticks from beginning of simulation (restored from checkpoints and never reset) (Tick)
simFreq                                  1000000000000                       # The number of ticks per simulated second ((Tick/Second))
hostSeconds                                   4432.15                       # Real time elapsed on the host (Second)
hostTickRate                                399522338                       # The number of ticks simulated per host second (ticks/s) ((Tick/Second))
hostMemory                                    2287744                       # Number of bytes of host memory used (Byte)
simInsts                                   1000000000                       # Number of instructions simulated (Count)
simOps                                     1084388561                       # Number of ops (including micro ops) simulated (Count)
hostInstRate                                   225624                       # Simulator instruction rate (inst/s) ((Count/Second))
hostOpRate                                     244664                       # Simulator op (including micro ops) rate (op/s) ((Count/Second))
system.clk_domain.clock                           500                       # Clock period in ticks (Tick)
system.clk_domain.voltage_domain.voltage            1                       # Voltage in Volts (Volt)
system.cpu.numCycles                       1062233562                       # Number of cpu cycles simulated (Cycle)
system.cpu.numWorkItemsStarted                      0                       # Number of work items this cpu started (Count)
system.cpu.numWorkItemsCompleted                    0                       # Number of work items this cpu completed (Count)
system.cpu.instsAdded                      1400586746                       # Number of instructions added to the IQ (excludes non-spec) (Count)
system.cpu.nonSpecInstsAdded                  3796238                       # Number of non-speculative instructions added to the IQ (Count)
system.cpu.instsIssued                     1339759727                       # Number of instructions issued (Count)
system.cpu.squashedInstsIssued                7382167                       # Number of squashed instructions issued (Count)
system.cpu.squashedInstsExamined            319994357                       # Number of squashed instructions iterated over during squash; mainly for profiling (Count)
system.cpu.squashedOperandsExamined         745225623                       # Number of squashed operands that are examined and possibly removed from graph (Count)
system.cpu.squashedNonSpecRemoved                6798                       # Number of squashed non-spec instructions that were removed (Count)
system.cpu.numIssuedDist::samples          1062226414                       # Number of insts issued each cycle (Count)
system.cpu.numIssuedDist::mean               1.261275                       # Number of insts issued each cycle (Count)
system.cpu.numIssuedDist::stdev              1.917502                       # Number of insts issued each cycle (Count)
system.cpu.numIssuedDist::underflows                0      0.00%      0.00% # Number of insts issued each cycle (Count)
system.cpu.numIssuedDist::0                 618211576     58.20%     58.20% # Number of insts issued each cycle (Count)
system.cpu.numIssuedDist::1                 123967340     11.67%     69.87% # Number of insts issued each cycle (Count)
system.cpu.numIssuedDist::2                  87887626      8.27%     78.14% # Number of insts issued each cycle (Count)
system.cpu.numIssuedDist::3                  72013453      6.78%     84.92% # Number of insts issued each cycle (Count)
system.cpu.numIssuedDist::4                  63023875      5.93%     90.86% # Number of insts issued each cycle (Count)
system.cpu.numIssuedDist::5                  44626811      4.20%     95.06% # Number of insts issued each cycle (Count)
system.cpu.numIssuedDist::6                  28137232      2.65%     97.71% # Number of insts issued each cycle (Count)
system.cpu.numIssuedDist::7                  14944179      1.41%     99.11% # Number of insts issued each cycle (Count)
system.cpu.numIssuedDist::8                   9414322      0.89%    100.00% # Number of insts issued each cycle (Count)
system.cpu.numIssuedDist::overflows                 0      0.00%    100.00% # Number of insts issued each cycle (Count)
system.cpu.numIssuedDist::min_value                 0                       # Number of insts issued each cycle (Count)
system.cpu.numIssuedDist::max_value                 8                       # Number of insts issued each cycle (Count)
system.cpu.numIssuedDist::total            1062226414                       # Number of insts issued each cycle (Count)
system.cpu.statFuBusy::No_OpClass                   0      0.00%      0.00% # attempts to use FU when none available (Count)
system.cpu.statFuBusy::IntAlu                 1034195      2.88%      2.88% # attempts to use FU when none available (Count)
system.cpu.statFuBusy::IntMult                      0      0.00%      2.88% # attempts to use FU when none available (Count)
system.cpu.statFuBusy::IntDiv                       0      0.00%      2.88% # attempts to use FU when none available (Count)
system.cpu.statFuBusy::FloatAdd                     0      0.00%      2.88% # attempts to use FU when none available (Count)
system.cpu.statFuBusy::FloatCmp                     0      0.00%      2.88% # attempts to use FU when none available (Count)
system.cpu.statFuBusy::FloatCvt                     0      0.00%      2.88% # attempts to use FU when none available (Count)
system.cpu.statFuBusy::FloatMult                    0      0.00%      2.88% # attempts to use FU when none available (Count)
system.cpu.statFuBusy::FloatMultAcc                 0      0.00%      2.88% # attempts to use FU when none available (Count)
system.cpu.statFuBusy::FloatDiv                     0      0.00%      2.88% # attempts to use FU when none available (Count)
system.cpu.statFuBusy::FloatMisc                    0      0.00%      2.88% # attempts to use FU when none available (Count)
system.cpu.statFuBusy::FloatSqrt                    0      0.00%      2.88% # attempts to use FU when none available (Count)
system.cpu.statFuBusy::SimdAdd                      0      0.00%      2.88% # attempts to use FU when none available (Count)
system.cpu.statFuBusy::SimdAddAcc                   0      0.00%      2.88% # attempts to use FU when none available (Count)
system.cpu.statFuBusy::SimdAlu                      0      0.00%      2.88% # attempts to use FU when none available (Count)
system.cpu.statFuBusy::SimdCmp                      0      0.00%      2.88% # attempts to use FU when none available (Count)
system.cpu.statFuBusy::SimdCvt                      0      0.00%      2.88% # attempts to use FU when none available (Count)
system.cpu.statFuBusy::SimdMisc                     0      0.00%      2.88% # attempts to use FU when none available (Count)
system.cpu.statFuBusy::SimdMult                     0      0.00%      2.88% # attempts to use FU when none available (Count)
system.cpu.statFuBusy::SimdMultAcc                  0      0.00%      2.88% # attempts to use FU when none available (Count)
system.cpu.statFuBusy::SimdShift                    0      0.00%      2.88% # attempts to use FU when none available (Count)
system.cpu.statFuBusy::SimdShiftAcc                 0      0.00%      2.88% # attempts to use FU when none available (Count)
system.cpu.statFuBusy::SimdDiv                      0      0.00%      2.88% # attempts to use FU when none available (Count)
system.cpu.statFuBusy::SimdSqrt                     0      0.00%      2.88% # attempts to use FU when none available (Count)
system.cpu.statFuBusy::SimdFloatAdd                 0      0.00%      2.88% # attempts to use FU when none available (Count)
system.cpu.statFuBusy::SimdFloatAlu                 0      0.00%      2.88% # attempts to use FU when none available (Count)
system.cpu.statFuBusy::SimdFloatCmp                 0      0.00%      2.88% # attempts to use FU when none available (Count)
system.cpu.statFuBusy::SimdFloatCvt                 0      0.00%      2.88% # attempts to use FU when none available (Count)
system.cpu.statFuBusy::SimdFloatDiv                 0      0.00%      2.88% # attempts to use FU when none available (Count)
system.cpu.statFuBusy::SimdFloatMisc                0      0.00%      2.88% # attempts to use FU when none available (Count)
system.cpu.statFuBusy::SimdFloatMult                0      0.00%      2.88% # attempts to use FU when none available (Count)
system.cpu.statFuBusy::SimdFloatMultAcc             0      0.00%      2.88% # attempts to use FU when none available (Count)
system.cpu.statFuBusy::SimdFloatSqrt                0      0.00%      2.88% # attempts to use FU when none available (Count)
system.cpu.statFuBusy::SimdReduceAdd                0      0.00%      2.88% # attempts to use FU when none available (Count)
system.cpu.statFuBusy::SimdReduceAlu                0      0.00%      2.88% # attempts to use FU when none available (Count)
system.cpu.statFuBusy::SimdReduceCmp                0      0.00%      2.88% # attempts to use FU when none available (Count)
system.cpu.statFuBusy::SimdFloatReduceAdd            0      0.00%      2.88% # attempts to use FU when none available (Count)
system.cpu.statFuBusy::SimdFloatReduceCmp            0      0.00%      2.88% # attempts to use FU when none available (Count)
system.cpu.statFuBusy::SimdAes                      0      0.00%      2.88% # attempts to use FU when none available (Count)
system.cpu.statFuBusy::SimdAesMix                   0      0.00%      2.88% # attempts to use FU when none available (Count)
system.cpu.statFuBusy::SimdSha1Hash                 0      0.00%      2.88% # attempts to use FU when none available (Count)
system.cpu.statFuBusy::SimdSha1Hash2                0      0.00%      2.88% # attempts to use FU when none available (Count)
system.cpu.statFuBusy::SimdSha256Hash               0      0.00%      2.88% # attempts to use FU when none available (Count)
system.cpu.statFuBusy::SimdSha256Hash2              0      0.00%      2.88% # attempts to use FU when none available (Count)
system.cpu.statFuBusy::SimdShaSigma2                0      0.00%      2.88% # attempts to use FU when none available (Count)
system.cpu.statFuBusy::SimdShaSigma3                0      0.00%      2.88% # attempts to use FU when none available (Count)
system.cpu.statFuBusy::SimdPredAlu                  0      0.00%      2.88% # attempts to use FU when none available (Count)
system.cpu.statFuBusy::MemRead               22306914     62.14%     65.02% # attempts to use FU when none available (Count)
system.cpu.statFuBusy::MemWrite              12558394     34.98%    100.00% # attempts to use FU when none available (Count)
system.cpu.statFuBusy::FloatMemRead                 0      0.00%    100.00% # attempts to use FU when none available (Count)
system.cpu.statFuBusy::FloatMemWrite                0      0.00%    100.00% # attempts to use FU when none available (Count)
system.cpu.statFuBusy::IprAccess                    0      0.00%    100.00% # attempts to use FU when none available (Count)
system.cpu.statFuBusy::InstPrefetch                 0      0.00%    100.00% # attempts to use FU when none available (Count)
system.cpu.statIssuedInstType_0::No_OpClass            3      0.00%      0.00% # Number of instructions issued per FU type, per thread (Count)
system.cpu.statIssuedInstType_0::IntAlu     820101343     61.21%     61.21% # Number of instructions issued per FU type, per thread (Count)
system.cpu.statIssuedInstType_0::IntMult      2714452      0.20%     61.42% # Number of instructions issued per FU type, per thread (Count)
system.cpu.statIssuedInstType_0::IntDiv             0      0.00%     61.42% # Number of instructions issued per FU type, per thread (Count)
system.cpu.statIssuedInstType_0::FloatAdd            0      0.00%     61.42% # Number of instructions issued per FU type, per thread (Count)
system.cpu.statIssuedInstType_0::FloatCmp            0      0.00%     61.42% # Number of instructions issued per FU type, per thread (Count)
system.cpu.statIssuedInstType_0::FloatCvt            0      0.00%     61.42% # Number of instructions issued per FU type, per thread (Count)
system.cpu.statIssuedInstType_0::FloatMult            0      0.00%     61.42% # Number of instructions issued per FU type, per thread (Count)
system.cpu.statIssuedInstType_0::FloatMultAcc            0      0.00%     61.42% # Number of instructions issued per FU type, per thread (Count)
system.cpu.statIssuedInstType_0::FloatDiv            0      0.00%     61.42% # Number of instructions issued per FU type, per thread (Count)
system.cpu.statIssuedInstType_0::FloatMisc            0      0.00%     61.42% # Number of instructions issued per FU type, per thread (Count)
system.cpu.statIssuedInstType_0::FloatSqrt            0      0.00%     61.42% # Number of instructions issued per FU type, per thread (Count)
system.cpu.statIssuedInstType_0::SimdAdd            0      0.00%     61.42% # Number of instructions issued per FU type, per thread (Count)
system.cpu.statIssuedInstType_0::SimdAddAcc            0      0.00%     61.42% # Number of instructions issued per FU type, per thread (Count)
system.cpu.statIssuedInstType_0::SimdAlu            0      0.00%     61.42% # Number of instructions issued per FU type, per thread (Count)
system.cpu.statIssuedInstType_0::SimdCmp            0      0.00%     61.42% # Number of instructions issued per FU type, per thread (Count)
system.cpu.statIssuedInstType_0::SimdCvt            0      0.00%     61.42% # Number of instructions issued per FU type, per thread (Count)
system.cpu.statIssuedInstType_0::SimdMisc            0      0.00%     61.42% # Number of instructions issued per FU type, per thread (Count)
system.cpu.statIssuedInstType_0::SimdMult            0      0.00%     61.42% # Number of instructions issued per FU type, per thread (Count)
system.cpu.statIssuedInstType_0::SimdMultAcc            0      0.00%     61.42% # Number of instructions issued per FU type, per thread (Count)
system.cpu.statIssuedInstType_0::SimdShift            0      0.00%     61.42% # Number of instructions issued per FU type, per thread (Count)
system.cpu.statIssuedInstType_0::SimdShiftAcc            0      0.00%     61.42% # Number of instructions issued per FU type, per thread (Count)
system.cpu.statIssuedInstType_0::SimdDiv            0      0.00%     61.42% # Number of instructions issued per FU type, per thread (Count)
system.cpu.statIssuedInstType_0::SimdSqrt            0      0.00%     61.42% # Number of instructions issued per FU type, per thread (Count)
system.cpu.statIssuedInstType_0::SimdFloatAdd            0      0.00%     61.42% # Number of instructions issued per FU type, per thread (Count)
system.cpu.statIssuedInstType_0::SimdFloatAlu            0      0.00%     61.42% # Number of instructions issued per FU type, per thread (Count)
system.cpu.statIssuedInstType_0::SimdFloatCmp            0      0.00%     61.42% # Number of instructions issued per FU type, per thread (Count)
system.cpu.statIssuedInstType_0::SimdFloatCvt            0      0.00%     61.42% # Number of instructions issued per FU type, per thread (Count)
system.cpu.statIssuedInstType_0::SimdFloatDiv            0      0.00%     61.42% # Number of instructions issued per FU type, per thread (Count)
system.cpu.statIssuedInstType_0::SimdFloatMisc            3      0.00%     61.42% # Number of instructions issued per FU type, per thread (Count)
system.cpu.statIssuedInstType_0::SimdFloatMult            0      0.00%     61.42% # Number of instructions issued per FU type, per thread (Count)
system.cpu.statIssuedInstType_0::SimdFloatMultAcc            0      0.00%     61.42% # Number of instructions issued per FU type, per thread (Count)
system.cpu.statIssuedInstType_0::SimdFloatSqrt            0      0.00%     61.42% # Number of instructions issued per FU type, per thread (Count)
system.cpu.statIssuedInstType_0::SimdReduceAdd            0      0.00%     61.42% # Number of instructions issued per FU type, per thread (Count)
system.cpu.statIssuedInstType_0::SimdReduceAlu            0      0.00%     61.42% # Number of instructions issued per FU type, per thread (Count)
system.cpu.statIssuedInstType_0::SimdReduceCmp            0      0.00%     61.42% # Number of instructions issued per FU type, per thread (Count)
system.cpu.statIssuedInstType_0::SimdFloatReduceAdd            0      0.00%     61.42% # Number of instructions issued per FU type, per thread (Count)
system.cpu.statIssuedInstType_0::SimdFloatReduceCmp            0      0.00%     61.42% # Number of instructions issued per FU type, per thread (Count)
system.cpu.statIssuedInstType_0::SimdAes            0      0.00%     61.42% # Number of instructions issued per FU type, per thread (Count)
system.cpu.statIssuedInstType_0::SimdAesMix            0      0.00%     61.42% # Number of instructions issued per FU type, per thread (Count)
system.cpu.statIssuedInstType_0::SimdSha1Hash            0      0.00%     61.42% # Number of instructions issued per FU type, per thread (Count)
system.cpu.statIssuedInstType_0::SimdSha1Hash2            0      0.00%     61.42% # Number of instructions issued per FU type, per thread (Count)
system.cpu.statIssuedInstType_0::SimdSha256Hash            0      0.00%     61.42% # Number of instructions issued per FU type, per thread (Count)
system.cpu.statIssuedInstType_0::SimdSha256Hash2            0      0.00%     61.42% # Number of instructions issued per FU type, per thread (Count)
system.cpu.statIssuedInstType_0::SimdShaSigma2            0      0.00%     61.42% # Number of instructions issued per FU type, per thread (Count)
system.cpu.statIssuedInstType_0::SimdShaSigma3            0      0.00%     61.42% # Number of instructions issued per FU type, per thread (Count)
system.cpu.statIssuedInstType_0::SimdPredAlu            0      0.00%     61.42% # Number of instructions issued per FU type, per thread (Count)
system.cpu.statIssuedInstType_0::MemRead    385783815     28.80%     90.21% # Number of instructions issued per FU type, per thread (Count)
system.cpu.statIssuedInstType_0::MemWrite    131160111      9.79%    100.00% # Number of instructions issued per FU type, per thread (Count)
system.cpu.statIssuedInstType_0::FloatMemRead            0      0.00%    100.00% # Number of instructions issued per FU type, per thread (Count)
system.cpu.statIssuedInstType_0::FloatMemWrite            0      0.00%    100.00% # Number of instructions issued per FU type, per thread (Count)
system.cpu.statIssuedInstType_0::IprAccess            0      0.00%    100.00% # Number of instructions issued per FU type, per thread (Count)
system.cpu.statIssuedInstType_0::InstPrefetch            0      0.00%    100.00% # Number of instructions issued per FU type, per thread (Count)
system.cpu.statIssuedInstType_0::total     1339759727                       # Number of instructions issued per FU type, per thread (Count)
system.cpu.issueRate                         1.261267                       # Inst issue rate ((Count/Cycle))
system.cpu.fuBusy                            35899503                       # FU busy when requested (Count)
system.cpu.fuBusyRate                        0.026795                       # FU busy rate (busy events/executed inst) ((Count/Count))
system.cpu.intInstQueueReads               3785027538                       # Number of integer instruction queue reads (Count)
system.cpu.intInstQueueWrites              1725243652                       # Number of integer instruction queue writes (Count)
system.cpu.intInstQueueWakeupAccesses      1230947030                       # Number of integer instruction queue wakeup accesses (Count)
system.cpu.fpInstQueueReads                         0                       # Number of floating instruction queue reads (Count)
system.cpu.fpInstQueueWrites                        0                       # Number of floating instruction queue writes (Count)
system.cpu.fpInstQueueWakeupAccesses                0                       # Number of floating instruction queue wakeup accesses (Count)
system.cpu.vecInstQueueReads                        0                       # Number of vector instruction queue reads (Count)
system.cpu.vecInstQueueWrites                       0                       # Number of vector instruction queue writes (Count)
system.cpu.vecInstQueueWakeupAccesses               0                       # Number of vector instruction queue wakeup accesses (Count)
system.cpu.intAluAccesses                  1375659227                       # Number of integer alu accesses (Count)
system.cpu.fpAluAccesses                            0                       # Number of floating point alu accesses (Count)
system.cpu.vecAluAccesses                           0                       # Number of vector alu accesses (Count)
system.cpu.numInsts                        1326832672                       # Number of executed instructions (Count)
system.cpu.numLoadInsts                     380512072                       # Number of load instructions executed (Count)
system.cpu.numSquashedInsts                  12927055                       # Number of squashed instructions skipped in execute (Count)
system.cpu.numSwp                                   0                       # Number of swp insts executed (Count)
system.cpu.numNop                                  31                       # Number of nop insts executed (Count)
system.cpu.numRefs                          509911338                       # Number of memory reference insts executed (Count)
system.cpu.numBranches                      266346991                       # Number of branches executed (Count)
system.cpu.numStoreInsts                    129399266                       # Number of stores executed (Count)
system.cpu.numRate                           1.249097                       # Inst execution rate ((Count/Cycle))
system.cpu.timesIdled                             296                       # Number of times that the entire CPU went into an idle state and unscheduled itself (Count)
system.cpu.idleCycles                            7148                       # Total number of cycles that the CPU has spent unscheduled due to idling (Cycle)
system.cpu.committedInsts                  1000000000                       # Number of Instructions Simulated (Count)
system.cpu.committedOps                    1084388561                       # Number of Ops (including micro ops) Simulated (Count)
system.cpu.cpi                               1.062234                       # CPI: Cycles Per Instruction ((Cycle/Count))
system.cpu.totalCpi                          1.062234                       # CPI: Total CPI of All Threads ((Cycle/Count))
system.cpu.ipc                               0.941413                       # IPC: Instructions Per Cycle ((Count/Cycle))
system.cpu.totalIpc                          0.941413                       # IPC: Total IPC of All Threads ((Count/Cycle))
system.cpu.intRegfileReads                 1348539485                       # Number of integer regfile reads (Count)
system.cpu.intRegfileWrites                 647455714                       # Number of integer regfile writes (Count)
system.cpu.vecRegfileReads                         16                       # number of vector regfile reads (Count)
system.cpu.ccRegfileReads                  4794863238                       # number of cc regfile reads (Count)
system.cpu.ccRegfileWrites                  830947796                       # number of cc regfile writes (Count)
system.cpu.miscRegfileReads                 427974016                       # number of misc regfile reads (Count)
system.cpu.miscRegfileWrites                  5052022                       # number of misc regfile writes (Count)
system.cpu.MemDepUnit__0.insertedLoads      341129855                       # Number of loads inserted to the mem dependence unit. (Count)
system.cpu.MemDepUnit__0.insertedStores     142484883                       # Number of stores inserted to the mem dependence unit. (Count)
system.cpu.MemDepUnit__0.conflictingLoads     46763783                       # Number of conflicting loads. (Count)
system.cpu.MemDepUnit__0.conflictingStores     31373807                       # Number of conflicting stores. (Count)
system.cpu.MemDepUnit__1.insertedLoads              0                       # Number of loads inserted to the mem dependence unit. (Count)
system.cpu.MemDepUnit__1.insertedStores             0                       # Number of stores inserted to the mem dependence unit. (Count)
system.cpu.MemDepUnit__1.conflictingLoads            0                       # Number of conflicting loads. (Count)
system.cpu.MemDepUnit__1.conflictingStores            0                       # Number of conflicting stores. (Count)
system.cpu.MemDepUnit__2.insertedLoads              0                       # Number of loads inserted to the mem dependence unit. (Count)
system.cpu.MemDepUnit__2.insertedStores             0                       # Number of stores inserted to the mem dependence unit. (Count)
system.cpu.MemDepUnit__2.conflictingLoads            0                       # Number of conflicting loads. (Count)
system.cpu.MemDepUnit__2.conflictingStores            0                       # Number of conflicting stores. (Count)
system.cpu.MemDepUnit__3.insertedLoads              0                       # Number of loads inserted to the mem dependence unit. (Count)
system.cpu.MemDepUnit__3.insertedStores             0                       # Number of stores inserted to the mem dependence unit. (Count)
system.cpu.MemDepUnit__3.conflictingLoads            0                       # Number of conflicting loads. (Count)
system.cpu.MemDepUnit__3.conflictingStores            0                       # Number of conflicting stores. (Count)
system.cpu.branchPred.lookups               343751983                       # Number of BP lookups (Count)
system.cpu.branchPred.condPredicted         289390063                       # Number of conditional branches predicted (Count)
system.cpu.branchPred.condIncorrect          10250666                       # Number of conditional branches incorrect (Count)
system.cpu.branchPred.BTBLookups            149778512                       # Number of BTB lookups (Count)
system.cpu.branchPred.BTBHits               146093037                       # Number of BTB hits (Count)
system.cpu.branchPred.BTBHitRatio            0.975394                       # BTB Hit Ratio (Ratio)
system.cpu.branchPred.RASUsed                10640858                       # Number of times the RAS was used to get a target. (Count)
system.cpu.branchPred.RASIncorrect                 51                       # Number of incorrect RAS predictions. (Count)
system.cpu.branchPred.indirectLookups         2547671                       # Number of indirect predictor lookups. (Count)
system.cpu.branchPred.indirectHits            1334494                       # Number of indirect target hits. (Count)
system.cpu.branchPred.indirectMisses          1213177                       # Number of indirect misses. (Count)
system.cpu.branchPred.indirectMispredicted         9087                       # Number of mispredicted indirect branches. (Count)
system.cpu.commit.commitSquashedInsts       320528576                       # The number of squashed insts skipped by commit (Count)
system.cpu.commit.commitNonSpecStalls         3789440                       # The number of times commit has been forced to stall to communicate backwards (Count)
system.cpu.commit.branchMispredicts           8191858                       # The number of times a branch was mispredicted (Count)
system.cpu.commit.numCommittedDist::samples   1015766705                       # Number of insts commited each cycle (Count)
system.cpu.commit.numCommittedDist::mean     1.067557                       # Number of insts commited each cycle (Count)
system.cpu.commit.numCommittedDist::stdev     2.110880                       # Number of insts commited each cycle (Count)
system.cpu.commit.numCommittedDist::underflows            0      0.00%      0.00% # Number of insts commited each cycle (Count)
system.cpu.commit.numCommittedDist::0       662818150     65.25%     65.25% # Number of insts commited each cycle (Count)
system.cpu.commit.numCommittedDist::1       157223644     15.48%     80.73% # Number of insts commited each cycle (Count)
system.cpu.commit.numCommittedDist::2        56476582      5.56%     86.29% # Number of insts commited each cycle (Count)
system.cpu.commit.numCommittedDist::3        24222124      2.38%     88.68% # Number of insts commited each cycle (Count)
system.cpu.commit.numCommittedDist::4        22152149      2.18%     90.86% # Number of insts commited each cycle (Count)
system.cpu.commit.numCommittedDist::5        19511138      1.92%     92.78% # Number of insts commited each cycle (Count)
system.cpu.commit.numCommittedDist::6         8990142      0.89%     93.66% # Number of insts commited each cycle (Count)
system.cpu.commit.numCommittedDist::7        13541964      1.33%     95.00% # Number of insts commited each cycle (Count)
system.cpu.commit.numCommittedDist::8        50830812      5.00%    100.00% # Number of insts commited each cycle (Count)
system.cpu.commit.numCommittedDist::overflows            0      0.00%    100.00% # Number of insts commited each cycle (Count)
system.cpu.commit.numCommittedDist::min_value            0                       # Number of insts commited each cycle (Count)
system.cpu.commit.numCommittedDist::max_value            8                       # Number of insts commited each cycle (Count)
system.cpu.commit.numCommittedDist::total   1015766705                       # Number of insts commited each cycle (Count)
system.cpu.commit.instsCommitted           1000000001                       # Number of instructions committed (Count)
system.cpu.commit.opsCommitted             1084388562                       # Number of ops (including micro ops) committed (Count)
system.cpu.commit.memRefs                   371594264                       # Number of memory references committed (Count)
system.cpu.commit.loads                     257232843                       # Number of loads committed (Count)
system.cpu.commit.amos                              0                       # Number of atomic instructions committed (Count)
system.cpu.commit.membars                     2526011                       # Number of memory barriers committed (Count)
system.cpu.commit.branches                  234516986                       # Number of branches committed (Count)
system.cpu.commit.vectorInstructions                0                       # Number of committed Vector instructions. (Count)
system.cpu.commit.floating                          0                       # Number of committed floating point instructions. (Count)
system.cpu.commit.integer                   857333723                       # Number of committed integer instructions. (Count)
system.cpu.commit.functionCalls               6817153                       # Number of function calls committed. (Count)
system.cpu.commit.committedInstType_0::No_OpClass            0      0.00%      0.00% # Class of committed instruction (Count)
system.cpu.commit.committedInstType_0::IntAlu    710093877     65.48%     65.48% # Class of committed instruction (Count)
system.cpu.commit.committedInstType_0::IntMult      2700418      0.25%     65.73% # Class of committed instruction (Count)
system.cpu.commit.committedInstType_0::IntDiv            0      0.00%     65.73% # Class of committed instruction (Count)
system.cpu.commit.committedInstType_0::FloatAdd            0      0.00%     65.73% # Class of committed instruction (Count)
system.cpu.commit.committedInstType_0::FloatCmp            0      0.00%     65.73% # Class of committed instruction (Count)
system.cpu.commit.committedInstType_0::FloatCvt            0      0.00%     65.73% # Class of committed instruction (Count)
system.cpu.commit.committedInstType_0::FloatMult            0      0.00%     65.73% # Class of committed instruction (Count)
system.cpu.commit.committedInstType_0::FloatMultAcc            0      0.00%     65.73% # Class of committed instruction (Count)
system.cpu.commit.committedInstType_0::FloatDiv            0      0.00%     65.73% # Class of committed instruction (Count)
system.cpu.commit.committedInstType_0::FloatMisc            0      0.00%     65.73% # Class of committed instruction (Count)
system.cpu.commit.committedInstType_0::FloatSqrt            0      0.00%     65.73% # Class of committed instruction (Count)
system.cpu.commit.committedInstType_0::SimdAdd            0      0.00%     65.73% # Class of committed instruction (Count)
system.cpu.commit.committedInstType_0::SimdAddAcc            0      0.00%     65.73% # Class of committed instruction (Count)
system.cpu.commit.committedInstType_0::SimdAlu            0      0.00%     65.73% # Class of committed instruction (Count)
system.cpu.commit.committedInstType_0::SimdCmp            0      0.00%     65.73% # Class of committed instruction (Count)
system.cpu.commit.committedInstType_0::SimdCvt            0      0.00%     65.73% # Class of committed instruction (Count)
system.cpu.commit.committedInstType_0::SimdMisc            0      0.00%     65.73% # Class of committed instruction (Count)
system.cpu.commit.committedInstType_0::SimdMult            0      0.00%     65.73% # Class of committed instruction (Count)
system.cpu.commit.committedInstType_0::SimdMultAcc            0      0.00%     65.73% # Class of committed instruction (Count)
system.cpu.commit.committedInstType_0::SimdShift            0      0.00%     65.73% # Class of committed instruction (Count)
system.cpu.commit.committedInstType_0::SimdShiftAcc            0      0.00%     65.73% # Class of committed instruction (Count)
system.cpu.commit.committedInstType_0::SimdDiv            0      0.00%     65.73% # Class of committed instruction (Count)
system.cpu.commit.committedInstType_0::SimdSqrt            0      0.00%     65.73% # Class of committed instruction (Count)
system.cpu.commit.committedInstType_0::SimdFloatAdd            0      0.00%     65.73% # Class of committed instruction (Count)
system.cpu.commit.committedInstType_0::SimdFloatAlu            0      0.00%     65.73% # Class of committed instruction (Count)
system.cpu.commit.committedInstType_0::SimdFloatCmp            0      0.00%     65.73% # Class of committed instruction (Count)
system.cpu.commit.committedInstType_0::SimdFloatCvt            0      0.00%     65.73% # Class of committed instruction (Count)
system.cpu.commit.committedInstType_0::SimdFloatDiv            0      0.00%     65.73% # Class of committed instruction (Count)
system.cpu.commit.committedInstType_0::SimdFloatMisc            3      0.00%     65.73% # Class of committed instruction (Count)
system.cpu.commit.committedInstType_0::SimdFloatMult            0      0.00%     65.73% # Class of committed instruction (Count)
system.cpu.commit.committedInstType_0::SimdFloatMultAcc            0      0.00%     65.73% # Class of committed instruction (Count)
system.cpu.commit.committedInstType_0::SimdFloatSqrt            0      0.00%     65.73% # Class of committed instruction (Count)
system.cpu.commit.committedInstType_0::SimdReduceAdd            0      0.00%     65.73% # Class of committed instruction (Count)
system.cpu.commit.committedInstType_0::SimdReduceAlu            0      0.00%     65.73% # Class of committed instruction (Count)
system.cpu.commit.committedInstType_0::SimdReduceCmp            0      0.00%     65.73% # Class of committed instruction (Count)
system.cpu.commit.committedInstType_0::SimdFloatReduceAdd            0      0.00%     65.73% # Class of committed instruction (Count)
system.cpu.commit.committedInstType_0::SimdFloatReduceCmp            0      0.00%     65.73% # Class of committed instruction (Count)
system.cpu.commit.committedInstType_0::SimdAes            0      0.00%     65.73% # Class of committed instruction (Count)
system.cpu.commit.committedInstType_0::SimdAesMix            0      0.00%     65.73% # Class of committed instruction (Count)
system.cpu.commit.committedInstType_0::SimdSha1Hash            0      0.00%     65.73% # Class of committed instruction (Count)
system.cpu.commit.committedInstType_0::SimdSha1Hash2            0      0.00%     65.73% # Class of committed instruction (Count)
system.cpu.commit.committedInstType_0::SimdSha256Hash            0      0.00%     65.73% # Class of committed instruction (Count)
system.cpu.commit.committedInstType_0::SimdSha256Hash2            0      0.00%     65.73% # Class of committed instruction (Count)
system.cpu.commit.committedInstType_0::SimdShaSigma2            0      0.00%     65.73% # Class of committed instruction (Count)
system.cpu.commit.committedInstType_0::SimdShaSigma3            0      0.00%     65.73% # Class of committed instruction (Count)
system.cpu.commit.committedInstType_0::SimdPredAlu            0      0.00%     65.73% # Class of committed instruction (Count)
system.cpu.commit.committedInstType_0::MemRead    257232843     23.72%     89.45% # Class of committed instruction (Count)
system.cpu.commit.committedInstType_0::MemWrite    114361421     10.55%    100.00% # Class of committed instruction (Count)
system.cpu.commit.committedInstType_0::FloatMemRead            0      0.00%    100.00% # Class of committed instruction (Count)
system.cpu.commit.committedInstType_0::FloatMemWrite            0      0.00%    100.00% # Class of committed instruction (Count)
system.cpu.commit.committedInstType_0::IprAccess            0      0.00%    100.00% # Class of committed instruction (Count)
system.cpu.commit.committedInstType_0::InstPrefetch            0      0.00%    100.00% # Class of committed instruction (Count)
system.cpu.commit.committedInstType_0::total   1084388562                       # Class of committed instruction (Count)
system.cpu.commit.commitEligibleSamples      50830812                       # number cycles where commit BW limit reached (Cycle)
system.cpu.dcache.demandHits::cpu.data      331978682                       # number of demand (read+write) hits (Count)
system.cpu.dcache.demandHits::total         331978682                       # number of demand (read+write) hits (Count)
system.cpu.dcache.overallHits::cpu.data     332193239                       # number of overall hits (Count)
system.cpu.dcache.overallHits::total        332193239                       # number of overall hits (Count)
system.cpu.dcache.demandMisses::cpu.data     65692416                       # number of demand (read+write) misses (Count)
system.cpu.dcache.demandMisses::total        65692416                       # number of demand (read+write) misses (Count)
system.cpu.dcache.overallMisses::cpu.data     65692460                       # number of overall misses (Count)
system.cpu.dcache.overallMisses::total       65692460                       # number of overall misses (Count)
system.cpu.dcache.demandMissLatency::cpu.data 3430191443386                       # number of demand (read+write) miss ticks (Tick)
system.cpu.dcache.demandMissLatency::total 3430191443386                       # number of demand (read+write) miss ticks (Tick)
system.cpu.dcache.overallMissLatency::cpu.data 3430191443386                       # number of overall miss ticks (Tick)
system.cpu.dcache.overallMissLatency::total 3430191443386                       # number of overall miss ticks (Tick)
system.cpu.dcache.demandAccesses::cpu.data    397671098                       # number of demand (read+write) accesses (Count)
system.cpu.dcache.demandAccesses::total     397671098                       # number of demand (read+write) accesses (Count)
system.cpu.dcache.overallAccesses::cpu.data    397885699                       # number of overall (read+write) accesses (Count)
system.cpu.dcache.overallAccesses::total    397885699                       # number of overall (read+write) accesses (Count)
system.cpu.dcache.demandMissRate::cpu.data     0.165193                       # miss rate for demand accesses (Ratio)
system.cpu.dcache.demandMissRate::total      0.165193                       # miss rate for demand accesses (Ratio)
system.cpu.dcache.overallMissRate::cpu.data     0.165104                       # miss rate for overall accesses (Ratio)
system.cpu.dcache.overallMissRate::total     0.165104                       # miss rate for overall accesses (Ratio)
system.cpu.dcache.demandAvgMissLatency::cpu.data 52215.942909                       # average overall miss latency in ticks ((Tick/Count))
system.cpu.dcache.demandAvgMissLatency::total 52215.942909                       # average overall miss latency in ticks ((Tick/Count))
system.cpu.dcache.overallAvgMissLatency::cpu.data 52215.907935                       # average overall miss latency ((Tick/Count))
system.cpu.dcache.overallAvgMissLatency::total 52215.907935                       # average overall miss latency ((Tick/Count))
system.cpu.dcache.blockedCycles::no_mshrs     92088905                       # number of cycles access was blocked (Cycle)
system.cpu.dcache.blockedCycles::no_targets         1457                       # number of cycles access was blocked (Cycle)
system.cpu.dcache.blockedCauses::no_mshrs     12095760                       # number of times access was blocked (Count)
system.cpu.dcache.blockedCauses::no_targets           24                       # number of times access was blocked (Count)
system.cpu.dcache.avgBlocked::no_mshrs       7.613321                       # average number of cycles each access was blocked ((Cycle/Count))
system.cpu.dcache.avgBlocked::no_targets    60.708333                       # average number of cycles each access was blocked ((Cycle/Count))
system.cpu.dcache.writebacks::writebacks     10035678                       # number of writebacks (Count)
system.cpu.dcache.writebacks::total          10035678                       # number of writebacks (Count)
system.cpu.dcache.demandMshrHits::cpu.data     33054849                       # number of demand (read+write) MSHR hits (Count)
system.cpu.dcache.demandMshrHits::total      33054849                       # number of demand (read+write) MSHR hits (Count)
system.cpu.dcache.overallMshrHits::cpu.data     33054849                       # number of overall MSHR hits (Count)
system.cpu.dcache.overallMshrHits::total     33054849                       # number of overall MSHR hits (Count)
system.cpu.dcache.demandMshrMisses::cpu.data     32637567                       # number of demand (read+write) MSHR misses (Count)
system.cpu.dcache.demandMshrMisses::total     32637567                       # number of demand (read+write) MSHR misses (Count)
system.cpu.dcache.overallMshrMisses::cpu.data     32637596                       # number of overall MSHR misses (Count)
system.cpu.dcache.overallMshrMisses::total     32637596                       # number of overall MSHR misses (Count)
system.cpu.dcache.demandMshrMissLatency::cpu.data 1572700897727                       # number of demand (read+write) MSHR miss ticks (Tick)
system.cpu.dcache.demandMshrMissLatency::total 1572700897727                       # number of demand (read+write) MSHR miss ticks (Tick)
system.cpu.dcache.overallMshrMissLatency::cpu.data 1572701727009                       # number of overall MSHR miss ticks (Tick)
system.cpu.dcache.overallMshrMissLatency::total 1572701727009                       # number of overall MSHR miss ticks (Tick)
system.cpu.dcache.demandMshrMissRate::cpu.data     0.082072                       # mshr miss ratio for demand accesses (Ratio)
system.cpu.dcache.demandMshrMissRate::total     0.082072                       # mshr miss ratio for demand accesses (Ratio)
system.cpu.dcache.overallMshrMissRate::cpu.data     0.082028                       # mshr miss ratio for overall accesses (Ratio)
system.cpu.dcache.overallMshrMissRate::total     0.082028                       # mshr miss ratio for overall accesses (Ratio)
system.cpu.dcache.demandAvgMshrMissLatency::cpu.data 48186.830156                       # average overall mshr miss latency ((Tick/Count))
system.cpu.dcache.demandAvgMshrMissLatency::total 48186.830156                       # average overall mshr miss latency ((Tick/Count))
system.cpu.dcache.overallAvgMshrMissLatency::cpu.data 48186.812748                       # average overall mshr miss latency ((Tick/Count))
system.cpu.dcache.overallAvgMshrMissLatency::total 48186.812748                       # average overall mshr miss latency ((Tick/Count))
system.cpu.dcache.replacements               32637076                       # number of replacements (Count)
system.cpu.dcache.LoadLockedReq.hits::cpu.data      1263003                       # number of LoadLockedReq hits (Count)
system.cpu.dcache.LoadLockedReq.hits::total      1263003                       # number of LoadLockedReq hits (Count)
system.cpu.dcache.LoadLockedReq.misses::cpu.data            2                       # number of LoadLockedReq misses (Count)
system.cpu.dcache.LoadLockedReq.misses::total            2                       # number of LoadLockedReq misses (Count)
system.cpu.dcache.LoadLockedReq.missLatency::cpu.data       158365                       # number of LoadLockedReq miss ticks (Tick)
system.cpu.dcache.LoadLockedReq.missLatency::total       158365                       # number of LoadLockedReq miss ticks (Tick)
system.cpu.dcache.LoadLockedReq.accesses::cpu.data      1263005                       # number of LoadLockedReq accesses(hits+misses) (Count)
system.cpu.dcache.LoadLockedReq.accesses::total      1263005                       # number of LoadLockedReq accesses(hits+misses) (Count)
system.cpu.dcache.LoadLockedReq.missRate::cpu.data     0.000002                       # miss rate for LoadLockedReq accesses (Ratio)
system.cpu.dcache.LoadLockedReq.missRate::total     0.000002                       # miss rate for LoadLockedReq accesses (Ratio)
system.cpu.dcache.LoadLockedReq.avgMissLatency::cpu.data 79182.500000                       # average LoadLockedReq miss latency ((Tick/Count))
system.cpu.dcache.LoadLockedReq.avgMissLatency::total 79182.500000                       # average LoadLockedReq miss latency ((Tick/Count))
system.cpu.dcache.LoadLockedReq.mshrMisses::cpu.data            2                       # number of LoadLockedReq MSHR misses (Count)
system.cpu.dcache.LoadLockedReq.mshrMisses::total            2                       # number of LoadLockedReq MSHR misses (Count)
system.cpu.dcache.LoadLockedReq.mshrMissLatency::cpu.data       149651                       # number of LoadLockedReq MSHR miss ticks (Tick)
system.cpu.dcache.LoadLockedReq.mshrMissLatency::total       149651                       # number of LoadLockedReq MSHR miss ticks (Tick)
system.cpu.dcache.LoadLockedReq.mshrMissRate::cpu.data     0.000002                       # mshr miss rate for LoadLockedReq accesses (Ratio)
system.cpu.dcache.LoadLockedReq.mshrMissRate::total     0.000002                       # mshr miss rate for LoadLockedReq accesses (Ratio)
system.cpu.dcache.LoadLockedReq.avgMshrMissLatency::cpu.data 74825.500000                       # average LoadLockedReq mshr miss latency ((Tick/Count))
system.cpu.dcache.LoadLockedReq.avgMshrMissLatency::total 74825.500000                       # average LoadLockedReq mshr miss latency ((Tick/Count))
system.cpu.dcache.ReadReq.hits::cpu.data    224077248                       # number of ReadReq hits (Count)
system.cpu.dcache.ReadReq.hits::total       224077248                       # number of ReadReq hits (Count)
system.cpu.dcache.ReadReq.misses::cpu.data     63234815                       # number of ReadReq misses (Count)
system.cpu.dcache.ReadReq.misses::total      63234815                       # number of ReadReq misses (Count)
system.cpu.dcache.ReadReq.missLatency::cpu.data 3314277159578                       # number of ReadReq miss ticks (Tick)
system.cpu.dcache.ReadReq.missLatency::total 3314277159578                       # number of ReadReq miss ticks (Tick)
system.cpu.dcache.ReadReq.accesses::cpu.data    287312063                       # number of ReadReq accesses(hits+misses) (Count)
system.cpu.dcache.ReadReq.accesses::total    287312063                       # number of ReadReq accesses(hits+misses) (Count)
system.cpu.dcache.ReadReq.missRate::cpu.data     0.220091                       # miss rate for ReadReq accesses (Ratio)
system.cpu.dcache.ReadReq.missRate::total     0.220091                       # miss rate for ReadReq accesses (Ratio)
system.cpu.dcache.ReadReq.avgMissLatency::cpu.data 52412.221963                       # average ReadReq miss latency ((Tick/Count))
system.cpu.dcache.ReadReq.avgMissLatency::total 52412.221963                       # average ReadReq miss latency ((Tick/Count))
system.cpu.dcache.ReadReq.mshrHits::cpu.data     31390582                       # number of ReadReq MSHR hits (Count)
system.cpu.dcache.ReadReq.mshrHits::total     31390582                       # number of ReadReq MSHR hits (Count)
system.cpu.dcache.ReadReq.mshrMisses::cpu.data     31844233                       # number of ReadReq MSHR misses (Count)
system.cpu.dcache.ReadReq.mshrMisses::total     31844233                       # number of ReadReq MSHR misses (Count)
system.cpu.dcache.ReadReq.mshrMissLatency::cpu.data 1536031829830                       # number of ReadReq MSHR miss ticks (Tick)
system.cpu.dcache.ReadReq.mshrMissLatency::total 1536031829830                       # number of ReadReq MSHR miss ticks (Tick)
system.cpu.dcache.ReadReq.mshrMissRate::cpu.data     0.110835                       # mshr miss rate for ReadReq accesses (Ratio)
system.cpu.dcache.ReadReq.mshrMissRate::total     0.110835                       # mshr miss rate for ReadReq accesses (Ratio)
system.cpu.dcache.ReadReq.avgMshrMissLatency::cpu.data 48235.792956                       # average ReadReq mshr miss latency ((Tick/Count))
system.cpu.dcache.ReadReq.avgMshrMissLatency::total 48235.792956                       # average ReadReq mshr miss latency ((Tick/Count))
system.cpu.dcache.SoftPFReq.hits::cpu.data       214557                       # number of SoftPFReq hits (Count)
system.cpu.dcache.SoftPFReq.hits::total        214557                       # number of SoftPFReq hits (Count)
system.cpu.dcache.SoftPFReq.misses::cpu.data           44                       # number of SoftPFReq misses (Count)
system.cpu.dcache.SoftPFReq.misses::total           44                       # number of SoftPFReq misses (Count)
system.cpu.dcache.SoftPFReq.accesses::cpu.data       214601                       # number of SoftPFReq accesses(hits+misses) (Count)
system.cpu.dcache.SoftPFReq.accesses::total       214601                       # number of SoftPFReq accesses(hits+misses) (Count)
system.cpu.dcache.SoftPFReq.missRate::cpu.data     0.000205                       # miss rate for SoftPFReq accesses (Ratio)
system.cpu.dcache.SoftPFReq.missRate::total     0.000205                       # miss rate for SoftPFReq accesses (Ratio)
system.cpu.dcache.SoftPFReq.mshrMisses::cpu.data           29                       # number of SoftPFReq MSHR misses (Count)
system.cpu.dcache.SoftPFReq.mshrMisses::total           29                       # number of SoftPFReq MSHR misses (Count)
system.cpu.dcache.SoftPFReq.mshrMissLatency::cpu.data       829282                       # number of SoftPFReq MSHR miss ticks (Tick)
system.cpu.dcache.SoftPFReq.mshrMissLatency::total       829282                       # number of SoftPFReq MSHR miss ticks (Tick)
system.cpu.dcache.SoftPFReq.mshrMissRate::cpu.data     0.000135                       # mshr miss rate for SoftPFReq accesses (Ratio)
system.cpu.dcache.SoftPFReq.mshrMissRate::total     0.000135                       # mshr miss rate for SoftPFReq accesses (Ratio)
system.cpu.dcache.SoftPFReq.avgMshrMissLatency::cpu.data 28595.931034                       # average SoftPFReq mshr miss latency ((Tick/Count))
system.cpu.dcache.SoftPFReq.avgMshrMissLatency::total 28595.931034                       # average SoftPFReq mshr miss latency ((Tick/Count))
system.cpu.dcache.StoreCondReq.hits::cpu.data      1263005                       # number of StoreCondReq hits (Count)
system.cpu.dcache.StoreCondReq.hits::total      1263005                       # number of StoreCondReq hits (Count)
system.cpu.dcache.StoreCondReq.accesses::cpu.data      1263005                       # number of StoreCondReq accesses(hits+misses) (Count)
system.cpu.dcache.StoreCondReq.accesses::total      1263005                       # number of StoreCondReq accesses(hits+misses) (Count)
system.cpu.dcache.WriteReq.hits::cpu.data    107901434                       # number of WriteReq hits (Count)
system.cpu.dcache.WriteReq.hits::total      107901434                       # number of WriteReq hits (Count)
system.cpu.dcache.WriteReq.misses::cpu.data      2457601                       # number of WriteReq misses (Count)
system.cpu.dcache.WriteReq.misses::total      2457601                       # number of WriteReq misses (Count)
system.cpu.dcache.WriteReq.missLatency::cpu.data 115914283808                       # number of WriteReq miss ticks (Tick)
system.cpu.dcache.WriteReq.missLatency::total 115914283808                       # number of WriteReq miss ticks (Tick)
system.cpu.dcache.WriteReq.accesses::cpu.data    110359035                       # number of WriteReq accesses(hits+misses) (Count)
system.cpu.dcache.WriteReq.accesses::total    110359035                       # number of WriteReq accesses(hits+misses) (Count)
system.cpu.dcache.WriteReq.missRate::cpu.data     0.022269                       # miss rate for WriteReq accesses (Ratio)
system.cpu.dcache.WriteReq.missRate::total     0.022269                       # miss rate for WriteReq accesses (Ratio)
system.cpu.dcache.WriteReq.avgMissLatency::cpu.data 47165.623634                       # average WriteReq miss latency ((Tick/Count))
system.cpu.dcache.WriteReq.avgMissLatency::total 47165.623634                       # average WriteReq miss latency ((Tick/Count))
system.cpu.dcache.WriteReq.mshrHits::cpu.data      1664267                       # number of WriteReq MSHR hits (Count)
system.cpu.dcache.WriteReq.mshrHits::total      1664267                       # number of WriteReq MSHR hits (Count)
system.cpu.dcache.WriteReq.mshrMisses::cpu.data       793334                       # number of WriteReq MSHR misses (Count)
system.cpu.dcache.WriteReq.mshrMisses::total       793334                       # number of WriteReq MSHR misses (Count)
system.cpu.dcache.WriteReq.mshrMissLatency::cpu.data  36669067897                       # number of WriteReq MSHR miss ticks (Tick)
system.cpu.dcache.WriteReq.mshrMissLatency::total  36669067897                       # number of WriteReq MSHR miss ticks (Tick)
system.cpu.dcache.WriteReq.mshrMissRate::cpu.data     0.007189                       # mshr miss rate for WriteReq accesses (Ratio)
system.cpu.dcache.WriteReq.mshrMissRate::total     0.007189                       # mshr miss rate for WriteReq accesses (Ratio)
system.cpu.dcache.WriteReq.avgMshrMissLatency::cpu.data 46221.475314                       # average WriteReq mshr miss latency ((Tick/Count))
system.cpu.dcache.WriteReq.avgMshrMissLatency::total 46221.475314                       # average WriteReq mshr miss latency ((Tick/Count))
system.cpu.dcache.power_state.pwrStateResidencyTicks::UNDEFINED 1770743346187                       # Cumulative time (in ticks) in various power states (Tick)
system.cpu.dcache.tags.tagsInUse           511.968906                       # Average ticks per tags in use ((Tick/Count))
system.cpu.dcache.tags.totalRefs            367356920                       # Total number of references to valid blocks. (Count)
system.cpu.dcache.tags.sampledRefs           32637588                       # Sample count of references to valid blocks. (Count)
system.cpu.dcache.tags.avgRefs              11.255639                       # Average number of references to valid blocks. ((Count/Count))
system.cpu.dcache.tags.warmupTick              117000                       # The tick when the warmup percentage was hit. (Tick)
system.cpu.dcache.tags.occupancies::cpu.data   511.968906                       # Average occupied blocks per tick, per requestor ((Count/Tick))
system.cpu.dcache.tags.avgOccs::cpu.data     0.999939                       # Average percentage of cache occupancy ((Ratio/Tick))
system.cpu.dcache.tags.avgOccs::total        0.999939                       # Average percentage of cache occupancy ((Ratio/Tick))
system.cpu.dcache.tags.occupanciesTaskId::1024          512                       # Occupied blocks per task id (Count)
system.cpu.dcache.tags.ageTaskId_1024::0          119                       # Occupied blocks per task id, per block age (Count)
system.cpu.dcache.tags.ageTaskId_1024::1          392                       # Occupied blocks per task id, per block age (Count)
system.cpu.dcache.tags.ageTaskId_1024::3            1                       # Occupied blocks per task id, per block age (Count)
system.cpu.dcache.tags.ratioOccsTaskId::1024            1                       # Ratio of occupied blocks and all blocks, per task id (Ratio)
system.cpu.dcache.tags.tagAccesses         1634284424                       # Number of tag accesses (Count)
system.cpu.dcache.tags.dataAccesses        1634284424                       # Number of data accesses (Count)
system.cpu.dcache.tags.power_state.pwrStateResidencyTicks::UNDEFINED 1770743346187                       # Cumulative time (in ticks) in various power states (Tick)
system.cpu.decode.idleCycles                140822796                       # Number of cycles decode is idle (Cycle)
system.cpu.decode.blockedCycles             663784567                       # Number of cycles decode is blocked (Cycle)
system.cpu.decode.runCycles                 210515287                       # Number of cycles decode is running (Cycle)
system.cpu.decode.unblockCycles              38048140                       # Number of cycles decode is unblocking (Cycle)
system.cpu.decode.squashCycles                9055624                       # Number of cycles decode is squashing (Cycle)
system.cpu.decode.branchResolved            138798804                       # Number of times decode resolved a branch (Count)
system.cpu.decode.branchMispred               2063131                       # Number of times decode detected a branch misprediction (Count)
system.cpu.decode.decodedInsts             1499974201                       # Number of instructions handled by decode (Count)
system.cpu.decode.squashedInsts               3616333                       # Number of squashed instructions handled by decode (Count)
system.cpu.fetch.icacheStallCycles          184291600                       # Number of cycles fetch is stalled on an Icache miss (Cycle)
system.cpu.fetch.insts                     1493908693                       # Number of instructions fetch has processed (Count)
system.cpu.fetch.branches                   343751983                       # Number of branches that fetch encountered (Count)
system.cpu.fetch.predictedBranches          158068389                       # Number of branches that fetch has predicted taken (Count)
system.cpu.fetch.cycles                     866820361                       # Number of cycles fetch has run and was not squashing or blocked (Cycle)
system.cpu.fetch.squashCycles                22228866                       # Number of cycles fetch has spent squashing (Cycle)
system.cpu.fetch.miscStallCycles                    2                       # Number of cycles fetch has spent waiting on interrupts, or bad addresses, or out of MSHRs (Cycle)
system.cpu.fetch.pendingTrapStallCycles            18                       # Number of stall cycles due to pending traps (Cycle)
system.cpu.fetch.cacheLines                 178834223                       # Number of cache lines fetched (Count)
system.cpu.fetch.icacheSquashes               3511925                       # Number of outstanding Icache misses that were squashed (Count)
system.cpu.fetch.nisnDist::samples         1062226414                       # Number of instructions fetched each cycle (Total) (Count)
system.cpu.fetch.nisnDist::mean              1.515341                       # Number of instructions fetched each cycle (Total) (Count)
system.cpu.fetch.nisnDist::stdev             2.717327                       # Number of instructions fetched each cycle (Total) (Count)
system.cpu.fetch.nisnDist::underflows               0      0.00%      0.00% # Number of instructions fetched each cycle (Total) (Count)
system.cpu.fetch.nisnDist::0                752969939     70.89%     70.89% # Number of instructions fetched each cycle (Total) (Count)
system.cpu.fetch.nisnDist::1                 18643756      1.76%     72.64% # Number of instructions fetched each cycle (Total) (Count)
system.cpu.fetch.nisnDist::2                 44823027      4.22%     76.86% # Number of instructions fetched each cycle (Total) (Count)
system.cpu.fetch.nisnDist::3                 38962357      3.67%     80.53% # Number of instructions fetched each cycle (Total) (Count)
system.cpu.fetch.nisnDist::4                 28252438      2.66%     83.19% # Number of instructions fetched each cycle (Total) (Count)
system.cpu.fetch.nisnDist::5                 22363073      2.11%     85.29% # Number of instructions fetched each cycle (Total) (Count)
system.cpu.fetch.nisnDist::6                 38065174      3.58%     88.88% # Number of instructions fetched each cycle (Total) (Count)
system.cpu.fetch.nisnDist::7                 13930713      1.31%     90.19% # Number of instructions fetched each cycle (Total) (Count)
system.cpu.fetch.nisnDist::8                104215937      9.81%    100.00% # Number of instructions fetched each cycle (Total) (Count)
system.cpu.fetch.nisnDist::overflows                0      0.00%    100.00% # Number of instructions fetched each cycle (Total) (Count)
system.cpu.fetch.nisnDist::min_value                0                       # Number of instructions fetched each cycle (Total) (Count)
system.cpu.fetch.nisnDist::max_value                8                       # Number of instructions fetched each cycle (Total) (Count)
system.cpu.fetch.nisnDist::total           1062226414                       # Number of instructions fetched each cycle (Total) (Count)
system.cpu.fetch.branchRate                  0.323612                       # Number of branch fetches per cycle (Ratio)
system.cpu.fetch.rate                        1.406384                       # Number of inst fetches per cycle ((Count/Cycle))
system.cpu.icache.demandHits::cpu.inst      178833528                       # number of demand (read+write) hits (Count)
system.cpu.icache.demandHits::total         178833528                       # number of demand (read+write) hits (Count)
system.cpu.icache.overallHits::cpu.inst     178833528                       # number of overall hits (Count)
system.cpu.icache.overallHits::total        178833528                       # number of overall hits (Count)
system.cpu.icache.demandMisses::cpu.inst          695                       # number of demand (read+write) misses (Count)
system.cpu.icache.demandMisses::total             695                       # number of demand (read+write) misses (Count)
system.cpu.icache.overallMisses::cpu.inst          695                       # number of overall misses (Count)
system.cpu.icache.overallMisses::total            695                       # number of overall misses (Count)
system.cpu.icache.demandMissLatency::cpu.inst     50525103                       # number of demand (read+write) miss ticks (Tick)
system.cpu.icache.demandMissLatency::total     50525103                       # number of demand (read+write) miss ticks (Tick)
system.cpu.icache.overallMissLatency::cpu.inst     50525103                       # number of overall miss ticks (Tick)
system.cpu.icache.overallMissLatency::total     50525103                       # number of overall miss ticks (Tick)
system.cpu.icache.demandAccesses::cpu.inst    178834223                       # number of demand (read+write) accesses (Count)
system.cpu.icache.demandAccesses::total     178834223                       # number of demand (read+write) accesses (Count)
system.cpu.icache.overallAccesses::cpu.inst    178834223                       # number of overall (read+write) accesses (Count)
system.cpu.icache.overallAccesses::total    178834223                       # number of overall (read+write) accesses (Count)
system.cpu.icache.demandMissRate::cpu.inst     0.000004                       # miss rate for demand accesses (Ratio)
system.cpu.icache.demandMissRate::total      0.000004                       # miss rate for demand accesses (Ratio)
system.cpu.icache.overallMissRate::cpu.inst     0.000004                       # miss rate for overall accesses (Ratio)
system.cpu.icache.overallMissRate::total     0.000004                       # miss rate for overall accesses (Ratio)
system.cpu.icache.demandAvgMissLatency::cpu.inst 72697.989928                       # average overall miss latency in ticks ((Tick/Count))
system.cpu.icache.demandAvgMissLatency::total 72697.989928                       # average overall miss latency in ticks ((Tick/Count))
system.cpu.icache.overallAvgMissLatency::cpu.inst 72697.989928                       # average overall miss latency ((Tick/Count))
system.cpu.icache.overallAvgMissLatency::total 72697.989928                       # average overall miss latency ((Tick/Count))
system.cpu.icache.blockedCycles::no_mshrs           90                       # number of cycles access was blocked (Cycle)
system.cpu.icache.blockedCycles::no_targets            0                       # number of cycles access was blocked (Cycle)
system.cpu.icache.blockedCauses::no_mshrs            3                       # number of times access was blocked (Count)
system.cpu.icache.blockedCauses::no_targets            0                       # number of times access was blocked (Count)
system.cpu.icache.avgBlocked::no_mshrs             30                       # average number of cycles each access was blocked ((Cycle/Count))
system.cpu.icache.avgBlocked::no_targets          nan                       # average number of cycles each access was blocked ((Cycle/Count))
system.cpu.icache.demandMshrHits::cpu.inst          126                       # number of demand (read+write) MSHR hits (Count)
system.cpu.icache.demandMshrHits::total           126                       # number of demand (read+write) MSHR hits (Count)
system.cpu.icache.overallMshrHits::cpu.inst          126                       # number of overall MSHR hits (Count)
system.cpu.icache.overallMshrHits::total          126                       # number of overall MSHR hits (Count)
system.cpu.icache.demandMshrMisses::cpu.inst          569                       # number of demand (read+write) MSHR misses (Count)
system.cpu.icache.demandMshrMisses::total          569                       # number of demand (read+write) MSHR misses (Count)
system.cpu.icache.overallMshrMisses::cpu.inst          569                       # number of overall MSHR misses (Count)
system.cpu.icache.overallMshrMisses::total          569                       # number of overall MSHR misses (Count)
system.cpu.icache.demandMshrMissLatency::cpu.inst     42289384                       # number of demand (read+write) MSHR miss ticks (Tick)
system.cpu.icache.demandMshrMissLatency::total     42289384                       # number of demand (read+write) MSHR miss ticks (Tick)
system.cpu.icache.overallMshrMissLatency::cpu.inst     42289384                       # number of overall MSHR miss ticks (Tick)
system.cpu.icache.overallMshrMissLatency::total     42289384                       # number of overall MSHR miss ticks (Tick)
system.cpu.icache.demandMshrMissRate::cpu.inst     0.000003                       # mshr miss ratio for demand accesses (Ratio)
system.cpu.icache.demandMshrMissRate::total     0.000003                       # mshr miss ratio for demand accesses (Ratio)
system.cpu.icache.overallMshrMissRate::cpu.inst     0.000003                       # mshr miss ratio for overall accesses (Ratio)
system.cpu.icache.overallMshrMissRate::total     0.000003                       # mshr miss ratio for overall accesses (Ratio)
system.cpu.icache.demandAvgMshrMissLatency::cpu.inst 74322.291740                       # average overall mshr miss latency ((Tick/Count))
system.cpu.icache.demandAvgMshrMissLatency::total 74322.291740                       # average overall mshr miss latency ((Tick/Count))
system.cpu.icache.overallAvgMshrMissLatency::cpu.inst 74322.291740                       # average overall mshr miss latency ((Tick/Count))
system.cpu.icache.overallAvgMshrMissLatency::total 74322.291740                       # average overall mshr miss latency ((Tick/Count))
system.cpu.icache.replacements                    123                       # number of replacements (Count)
system.cpu.icache.ReadReq.hits::cpu.inst    178833528                       # number of ReadReq hits (Count)
system.cpu.icache.ReadReq.hits::total       178833528                       # number of ReadReq hits (Count)
system.cpu.icache.ReadReq.misses::cpu.inst          695                       # number of ReadReq misses (Count)
system.cpu.icache.ReadReq.misses::total           695                       # number of ReadReq misses (Count)
system.cpu.icache.ReadReq.missLatency::cpu.inst     50525103                       # number of ReadReq miss ticks (Tick)
system.cpu.icache.ReadReq.missLatency::total     50525103                       # number of ReadReq miss ticks (Tick)
system.cpu.icache.ReadReq.accesses::cpu.inst    178834223                       # number of ReadReq accesses(hits+misses) (Count)
system.cpu.icache.ReadReq.accesses::total    178834223                       # number of ReadReq accesses(hits+misses) (Count)
system.cpu.icache.ReadReq.missRate::cpu.inst     0.000004                       # miss rate for ReadReq accesses (Ratio)
system.cpu.icache.ReadReq.missRate::total     0.000004                       # miss rate for ReadReq accesses (Ratio)
system.cpu.icache.ReadReq.avgMissLatency::cpu.inst 72697.989928                       # average ReadReq miss latency ((Tick/Count))
system.cpu.icache.ReadReq.avgMissLatency::total 72697.989928                       # average ReadReq miss latency ((Tick/Count))
system.cpu.icache.ReadReq.mshrHits::cpu.inst          126                       # number of ReadReq MSHR hits (Count)
system.cpu.icache.ReadReq.mshrHits::total          126                       # number of ReadReq MSHR hits (Count)
system.cpu.icache.ReadReq.mshrMisses::cpu.inst          569                       # number of ReadReq MSHR misses (Count)
system.cpu.icache.ReadReq.mshrMisses::total          569                       # number of ReadReq MSHR misses (Count)
system.cpu.icache.ReadReq.mshrMissLatency::cpu.inst     42289384                       # number of ReadReq MSHR miss ticks (Tick)
system.cpu.icache.ReadReq.mshrMissLatency::total     42289384                       # number of ReadReq MSHR miss ticks (Tick)
system.cpu.icache.ReadReq.mshrMissRate::cpu.inst     0.000003                       # mshr miss rate for ReadReq accesses (Ratio)
system.cpu.icache.ReadReq.mshrMissRate::total     0.000003                       # mshr miss rate for ReadReq accesses (Ratio)
system.cpu.icache.ReadReq.avgMshrMissLatency::cpu.inst 74322.291740                       # average ReadReq mshr miss latency ((Tick/Count))
system.cpu.icache.ReadReq.avgMshrMissLatency::total 74322.291740                       # average ReadReq mshr miss latency ((Tick/Count))
system.cpu.icache.power_state.pwrStateResidencyTicks::UNDEFINED 1770743346187                       # Cumulative time (in ticks) in various power states (Tick)
system.cpu.icache.tags.tagsInUse           417.959303                       # Average ticks per tags in use ((Tick/Count))
system.cpu.icache.tags.totalRefs            178834097                       # Total number of references to valid blocks. (Count)
system.cpu.icache.tags.sampledRefs                569                       # Sample count of references to valid blocks. (Count)
system.cpu.icache.tags.avgRefs           314295.425308                       # Average number of references to valid blocks. ((Count/Count))
system.cpu.icache.tags.warmupTick               82000                       # The tick when the warmup percentage was hit. (Tick)
system.cpu.icache.tags.occupancies::cpu.inst   417.959303                       # Average occupied blocks per tick, per requestor ((Count/Tick))
system.cpu.icache.tags.avgOccs::cpu.inst     0.816327                       # Average percentage of cache occupancy ((Ratio/Tick))
system.cpu.icache.tags.avgOccs::total        0.816327                       # Average percentage of cache occupancy ((Ratio/Tick))
system.cpu.icache.tags.occupanciesTaskId::1024          436                       # Occupied blocks per task id (Count)
system.cpu.icache.tags.ageTaskId_1024::4          436                       # Occupied blocks per task id, per block age (Count)
system.cpu.icache.tags.ratioOccsTaskId::1024     0.851562                       # Ratio of occupied blocks and all blocks, per task id (Ratio)
system.cpu.icache.tags.tagAccesses          715337461                       # Number of tag accesses (Count)
system.cpu.icache.tags.dataAccesses         715337461                       # Number of data accesses (Count)
system.cpu.icache.tags.power_state.pwrStateResidencyTicks::UNDEFINED 1770743346187                       # Cumulative time (in ticks) in various power states (Tick)
system.cpu.iew.idleCycles                           0                       # Number of cycles IEW is idle (Cycle)
system.cpu.iew.squashCycles                   9055624                       # Number of cycles IEW is squashing (Cycle)
system.cpu.iew.blockCycles                  413983232                       # Number of cycles IEW is blocking (Cycle)
system.cpu.iew.unblockCycles                 29275477                       # Number of cycles IEW is unblocking (Cycle)
system.cpu.iew.dispatchedInsts             1404383015                       # Number of instructions dispatched to IQ (Count)
system.cpu.iew.dispSquashedInsts              3178008                       # Number of squashed instructions skipped by dispatch (Count)
system.cpu.iew.dispLoadInsts                341129855                       # Number of dispatched load instructions (Count)
system.cpu.iew.dispStoreInsts               142484883                       # Number of dispatched store instructions (Count)
system.cpu.iew.dispNonSpecInsts               1267023                       # Number of dispatched non-speculative instructions (Count)
system.cpu.iew.iqFullEvents                   3505118                       # Number of times the IQ has become full, causing a stall (Count)
system.cpu.iew.lsqFullEvents                 20513290                       # Number of times the LSQ has become full, causing a stall (Count)
system.cpu.iew.memOrderViolationEvents         868536                       # Number of memory order violations (Count)
system.cpu.iew.predictedTakenIncorrect        4268056                       # Number of branches that were predicted taken incorrectly (Count)
system.cpu.iew.predictedNotTakenIncorrect      5041661                       # Number of branches that were predicted not taken incorrectly (Count)
system.cpu.iew.branchMispredicts              9309717                       # Number of branch mispredicts detected at execute (Count)
system.cpu.iew.instsToCommit               1235883732                       # Cumulative count of insts sent to commit (Count)
system.cpu.iew.writebackCount              1230947030                       # Cumulative count of insts written-back (Count)
system.cpu.iew.producerInst                 680814988                       # Number of instructions producing a value (Count)
system.cpu.iew.consumerInst                1203811349                       # Number of instructions consuming a value (Count)
system.cpu.iew.wbRate                        1.158829                       # Insts written-back per cycle ((Count/Cycle))
system.cpu.iew.wbFanout                      0.565550                       # Average fanout of values written-back ((Count/Count))
system.cpu.lsq0.forwLoads                    13306047                       # Number of loads that had data forwarded from stores (Count)
system.cpu.lsq0.squashedLoads                83896990                       # Number of loads squashed (Count)
system.cpu.lsq0.ignoredResponses               252569                       # Number of memory responses ignored because the instruction is squashed (Count)
system.cpu.lsq0.memOrderViolation              868536                       # Number of memory ordering violations (Count)
system.cpu.lsq0.squashedStores               28123459                       # Number of stores squashed (Count)
system.cpu.lsq0.rescheduledLoads              5044971                       # Number of loads that were rescheduled (Count)
system.cpu.lsq0.blockedByCache               11329163                       # Number of times an access to memory failed due to the cache being blocked (Count)
system.cpu.lsq0.loadToUse::samples          257022175                       # Distribution of cycle latency between the first time a load is issued and its completion (Unspecified)
system.cpu.lsq0.loadToUse::mean             10.203822                       # Distribution of cycle latency between the first time a load is issued and its completion (Unspecified)
system.cpu.lsq0.loadToUse::stdev            19.805900                       # Distribution of cycle latency between the first time a load is issued and its completion (Unspecified)
system.cpu.lsq0.loadToUse::0-9              205302781     79.88%     79.88% # Distribution of cycle latency between the first time a load is issued and its completion (Unspecified)
system.cpu.lsq0.loadToUse::10-19             21190626      8.24%     88.12% # Distribution of cycle latency between the first time a load is issued and its completion (Unspecified)
system.cpu.lsq0.loadToUse::20-29              2984486      1.16%     89.28% # Distribution of cycle latency between the first time a load is issued and its completion (Unspecified)
system.cpu.lsq0.loadToUse::30-39              1526310      0.59%     89.88% # Distribution of cycle latency between the first time a load is issued and its completion (Unspecified)
system.cpu.lsq0.loadToUse::40-49             13977534      5.44%     95.32% # Distribution of cycle latency between the first time a load is issued and its completion (Unspecified)
system.cpu.lsq0.loadToUse::50-59              3575996      1.39%     96.71% # Distribution of cycle latency between the first time a load is issued and its completion (Unspecified)
system.cpu.lsq0.loadToUse::60-69              4567952      1.78%     98.48% # Distribution of cycle latency between the first time a load is issued and its completion (Unspecified)
[...]
system.mem_ctrl.dram.perBankRdBursts::8        479774                       # Per bank write bursts (Count)
system.mem_ctrl.dram.perBankRdBursts::9        479929                       # Per bank write bursts (Count)
system.mem_ctrl.dram.perBankRdBursts::10       467069                       # Per bank write bursts (Count)
system.mem_ctrl.dram.perBankRdBursts::11       466223                       # Per bank write bursts (Count)
system.mem_ctrl.dram.perBankRdBursts::12       446945                       # Per bank write bursts (Count)
system.mem_ctrl.dram.perBankRdBursts::13       461455                       # Per bank write bursts (Count)
system.mem_ctrl.dram.perBankRdBursts::14       458439                       # Per bank write bursts (Count)
system.mem_ctrl.dram.perBankRdBursts::15       459903                       # Per bank write bursts (Count)
system.mem_ctrl.dram.perBankRdBursts::16       446071                       # Per bank write bursts (Count)
system.mem_ctrl.dram.perBankRdBursts::17       461374                       # Per bank write bursts (Count)
system.mem_ctrl.dram.perBankRdBursts::18       430927                       # Per bank write bursts (Count)
system.mem_ctrl.dram.perBankRdBursts::19       447382                       # Per bank write bursts (Count)
system.mem_ctrl.dram.perBankRdBursts::20       439036                       # Per bank write bursts (Count)
system.mem_ctrl.dram.perBankRdBursts::21       456746                       # Per bank write bursts (Count)
system.mem_ctrl.dram.perBankRdBursts::22       448573                       # Per bank write bursts (Count)
system.mem_ctrl.dram.perBankRdBursts::23       465691                       # Per bank write bursts (Count)
system.mem_ctrl.dram.perBankRdBursts::24       474098                       # Per bank write bursts (Count)
system.mem_ctrl.dram.perBankRdBursts::25       464767                       # Per bank write bursts (Count)
system.mem_ctrl.dram.perBankRdBursts::26       462167                       # Per bank write bursts (Count)
system.mem_ctrl.dram.perBankRdBursts::27       470847                       # Per bank write bursts (Count)
system.mem_ctrl.dram.perBankRdBursts::28       468494                       # Per bank write bursts (Count)
system.mem_ctrl.dram.perBankRdBursts::29       470055                       # Per bank write bursts (Count)
system.mem_ctrl.dram.perBankRdBursts::30       482582                       # Per bank write bursts (Count)
system.mem_ctrl.dram.perBankRdBursts::31       466633                       # Per bank write bursts (Count)
system.mem_ctrl.dram.perBankWrBursts::0        179798                       # Per bank write bursts (Count)
system.mem_ctrl.dram.perBankWrBursts::1        172912                       # Per bank write bursts (Count)
system.mem_ctrl.dram.perBankWrBursts::2        180282                       # Per bank write bursts (Count)
system.mem_ctrl.dram.perBankWrBursts::3        172746                       # Per bank write bursts (Count)
system.mem_ctrl.dram.perBankWrBursts::4        178770                       # Per bank write bursts (Count)
system.mem_ctrl.dram.perBankWrBursts::5        172115                       # Per bank write bursts (Count)
system.mem_ctrl.dram.perBankWrBursts::6        180184                       # Per bank write bursts (Count)
system.mem_ctrl.dram.perBankWrBursts::7        171605                       # Per bank write bursts (Count)
system.mem_ctrl.dram.perBankWrBursts::8        179846                       # Per bank write bursts (Count)
system.mem_ctrl.dram.perBankWrBursts::9        179989                       # Per bank write bursts (Count)
system.mem_ctrl.dram.perBankWrBursts::10       172403                       # Per bank write bursts (Count)
system.mem_ctrl.dram.perBankWrBursts::11       179242                       # Per bank write bursts (Count)
system.mem_ctrl.dram.perBankWrBursts::12       171846                       # Per bank write bursts (Count)
system.mem_ctrl.dram.perBankWrBursts::13       179159                       # Per bank write bursts (Count)
system.mem_ctrl.dram.perBankWrBursts::14       176991                       # Per bank write bursts (Count)
system.mem_ctrl.dram.perBankWrBursts::15       179165                       # Per bank write bursts (Count)
system.mem_ctrl.dram.perBankWrBursts::16       172885                       # Per bank write bursts (Count)
system.mem_ctrl.dram.perBankWrBursts::17       178989                       # Per bank write bursts (Count)
system.mem_ctrl.dram.perBankWrBursts::18       163602                       # Per bank write bursts (Count)
system.mem_ctrl.dram.perBankWrBursts::19       178717                       # Per bank write bursts (Count)
system.mem_ctrl.dram.perBankWrBursts::20       163679                       # Per bank write bursts (Count)
system.mem_ctrl.dram.perBankWrBursts::21       180875                       # Per bank write bursts (Count)
system.mem_ctrl.dram.perBankWrBursts::22       172690                       # Per bank write bursts (Count)
system.mem_ctrl.dram.perBankWrBursts::23       179468                       # Per bank write bursts (Count)
system.mem_ctrl.dram.perBankWrBursts::24       172786                       # Per bank write bursts (Count)
system.mem_ctrl.dram.perBankWrBursts::25       179926                       # Per bank write bursts (Count)
system.mem_ctrl.dram.perBankWrBursts::26       172665                       # Per bank write bursts (Count)
system.mem_ctrl.dram.perBankWrBursts::27       180211                       # Per bank write bursts (Count)
system.mem_ctrl.dram.perBankWrBursts::28       179888                       # Per bank write bursts (Count)
system.mem_ctrl.dram.perBankWrBursts::29       172478                       # Per bank write bursts (Count)
system.mem_ctrl.dram.perBankWrBursts::30       179435                       # Per bank write bursts (Count)
system.mem_ctrl.dram.perBankWrBursts::31       172126                       # Per bank write bursts (Count)
system.mem_ctrl.dram.totQLat             293293135845                       # Total ticks spent queuing (Tick)
system.mem_ctrl.dram.totBusLat            49605769752                       # Total ticks spent in databus transfers (Tick)
system.mem_ctrl.dram.totMemAccLat        553708539357                       # Total ticks spent from burst creation until serviced by the DRAM (Tick)
system.mem_ctrl.dram.avgQLat                 19700.38                       # Average queueing delay per DRAM burst ((Tick/Count))
system.mem_ctrl.dram.avgBusLat                3332.00                       # Average bus latency per DRAM burst ((Tick/Count))
system.mem_ctrl.dram.avgMemAccLat            37192.38                       # Average memory access latency per DRAM burst ((Tick/Count))
system.mem_ctrl.dram.readRowHits              6961312                       # Number of row buffer hits during reads (Count)
system.mem_ctrl.dram.writeRowHits             2817308                       # Number of row buffer hits during writes (Count)
system.mem_ctrl.dram.readRowHitRate             46.76                       # Row buffer hit rate for reads (Ratio)
system.mem_ctrl.dram.writeRowHitRate            50.06                       # Row buffer hit rate for writes (Ratio)
system.mem_ctrl.dram.bytesPerActivate::samples     10736535                       # Bytes accessed per row activation (Byte)
system.mem_ctrl.dram.bytesPerActivate::mean   122.289829                       # Bytes accessed per row activation (Byte)
system.mem_ctrl.dram.bytesPerActivate::gmean    85.358971                       # Bytes accessed per row activation (Byte)
system.mem_ctrl.dram.bytesPerActivate::stdev   176.086206                       # Bytes accessed per row activation (Byte)
system.mem_ctrl.dram.bytesPerActivate::0-127      8446815     78.67%     78.67% # Bytes accessed per row activation (Byte)
system.mem_ctrl.dram.bytesPerActivate::128-255      1309800     12.20%     90.87% # Bytes accessed per row activation (Byte)
system.mem_ctrl.dram.bytesPerActivate::256-383       253299      2.36%     93.23% # Bytes accessed per row activation (Byte)
system.mem_ctrl.dram.bytesPerActivate::384-511       190147      1.77%     95.00% # Bytes accessed per row activation (Byte)
system.mem_ctrl.dram.bytesPerActivate::512-639       130570      1.22%     96.22% # Bytes accessed per row activation (Byte)
system.mem_ctrl.dram.bytesPerActivate::640-767        84203      0.78%     97.00% # Bytes accessed per row activation (Byte)
system.mem_ctrl.dram.bytesPerActivate::768-895        60971      0.57%     97.57% # Bytes accessed per row activation (Byte)
system.mem_ctrl.dram.bytesPerActivate::896-1023        47830      0.45%     98.02% # Bytes accessed per row activation (Byte)
system.mem_ctrl.dram.bytesPerActivate::1024-1151       212900      1.98%    100.00% # Bytes accessed per row activation (Byte)
system.mem_ctrl.dram.bytesPerActivate::total     10736535                       # Bytes accessed per row activation (Byte)
system.mem_ctrl.dram.bytesRead              952811904                       # Total bytes read (Byte)
system.mem_ctrl.dram.bytesWritten           360158272                       # Total bytes written (Byte)
system.mem_ctrl.dram.avgRdBW               538.085830                       # Average DRAM read bandwidth in MiBytes/s ((Byte/Second))
system.mem_ctrl.dram.avgWrBW               203.393830                       # Average DRAM write bandwidth in MiBytes/s ((Byte/Second))
system.mem_ctrl.dram.peakBW                  19207.00                       # Theoretical peak bandwidth in MiByte/s ((Byte/Second))
system.mem_ctrl.dram.busUtil                     3.86                       # Data bus utilization in percentage (Ratio)
system.mem_ctrl.dram.busUtilRead                 2.80                       # Data bus utilization in percentage for reads (Ratio)
system.mem_ctrl.dram.busUtilWrite                1.06                       # Data bus utilization in percentage for writes (Ratio)
system.mem_ctrl.dram.pageHitRate                47.67                       # Row buffer hit rate, read and write combined (Ratio)
system.mem_ctrl.dram.power_state.pwrStateResidencyTicks::UNDEFINED 1770743346187                       # Cumulative time (in ticks) in various power states (Tick)
system.mem_ctrl.dram.rank0.actEnergy     16783198994.015625                       # Energy for activate commands per rank (pJ) (Joule)
system.mem_ctrl.dram.rank0.preEnergy     22313031307.961945                       # Energy for precharge commands per rank (pJ) (Joule)
system.mem_ctrl.dram.rank0.readEnergy    31683000272.581959                       # Energy for read commands per rank (pJ) (Joule)
system.mem_ctrl.dram.rank0.writeEnergy   10625467392.288416                       # Energy for write commands per rank (pJ) (Joule)
system.mem_ctrl.dram.rank0.refreshEnergy 315077819131.177917                       # Energy for refresh commands per rank (pJ) (Joule)
system.mem_ctrl.dram.rank0.actBackEnergy 1096946241640.101685                       # Energy for active background per rank (pJ) (Joule)
system.mem_ctrl.dram.rank0.preBackEnergy 313089907235.400269                       # Energy for precharge background per rank (pJ) (Joule)
system.mem_ctrl.dram.rank0.actPowerDownEnergy            0                       # Energy for active power-down per rank (pJ) (Joule)
system.mem_ctrl.dram.rank0.prePowerDownEnergy            0                       # Energy for precharge power-down per rank (pJ) (Joule)
system.mem_ctrl.dram.rank0.selfRefreshEnergy            0                       # Energy for self refresh per rank (pJ) (Joule)
system.mem_ctrl.dram.rank0.totalEnergy   1806518665974.829346                       # Total energy per rank (pJ) (Joule)
system.mem_ctrl.dram.rank0.averagePower   1020.203560                       # Core power per rank (mW) (Watt)
system.mem_ctrl.dram.rank0.totalIdleTime            0                       # Total Idle time Per DRAM Rank (Tick)
system.mem_ctrl.dram.rank0.pwrStateTime::IDLE 472274412523                       # Time in different power states (Tick)
system.mem_ctrl.dram.rank0.pwrStateTime::REF  79600850000                       # Time in different power states (Tick)
system.mem_ctrl.dram.rank0.pwrStateTime::SREF            0                       # Time in different power states (Tick)
system.mem_ctrl.dram.rank0.pwrStateTime::PRE_PDN            0                       # Time in different power states (Tick)
system.mem_ctrl.dram.rank0.pwrStateTime::ACT 1218868083664                       # Time in different power states (Tick)
system.mem_ctrl.dram.rank0.pwrStateTime::ACT_PDN            0                       # Time in different power states (Tick)
system.mem_ctrl.dram.rank1.actEnergy     16701403485.311352                       # Energy for activate commands per rank (pJ) (Joule)
system.mem_ctrl.dram.rank1.preEnergy     22204301813.162632                       # Energy for precharge commands per rank (pJ) (Joule)
system.mem_ctrl.dram.rank1.readEnergy    30939323462.341549                       # Energy for read commands per rank (pJ) (Joule)
system.mem_ctrl.dram.rank1.writeEnergy   10525367368.320164                       # Energy for write commands per rank (pJ) (Joule)
system.mem_ctrl.dram.rank1.refreshEnergy 315077819131.177917                       # Energy for refresh commands per rank (pJ) (Joule)
system.mem_ctrl.dram.rank1.actBackEnergy 1094443464871.432007                       # Energy for active background per rank (pJ) (Joule)
system.mem_ctrl.dram.rank1.preBackEnergy 315012944752.571167                       # Energy for precharge background per rank (pJ) (Joule)
system.mem_ctrl.dram.rank1.actPowerDownEnergy            0                       # Energy for active power-down per rank (pJ) (Joule)
system.mem_ctrl.dram.rank1.prePowerDownEnergy            0                       # Energy for precharge power-down per rank (pJ) (Joule)
system.mem_ctrl.dram.rank1.selfRefreshEnergy            0                       # Energy for self refresh per rank (pJ) (Joule)
system.mem_ctrl.dram.rank1.totalEnergy   1804904624885.673828                       # Total energy per rank (pJ) (Joule)
system.mem_ctrl.dram.rank1.averagePower   1019.292055                       # Core power per rank (mW) (Watt)
system.mem_ctrl.dram.rank1.totalIdleTime            0                       # Total Idle time Per DRAM Rank (Tick)
system.mem_ctrl.dram.rank1.pwrStateTime::IDLE 475353710666                       # Time in different power states (Tick)
system.mem_ctrl.dram.rank1.pwrStateTime::REF  79600850000                       # Time in different power states (Tick)
system.mem_ctrl.dram.rank1.pwrStateTime::SREF            0                       # Time in different power states (Tick)
system.mem_ctrl.dram.rank1.pwrStateTime::PRE_PDN            0                       # Time in different power states (Tick)
system.mem_ctrl.dram.rank1.pwrStateTime::ACT 1215788785521                       # Time in different power states (Tick)
system.mem_ctrl.dram.rank1.pwrStateTime::ACT_PDN            0                       # Time in different power states (Tick)
system.mem_ctrl.power_state.pwrStateResidencyTicks::UNDEFINED 1770743346187                       # Cumulative time (in ticks) in various power states (Tick)
system.membus.transDist::ReadResp            14579687                       # Transaction distribution (Count)
system.membus.transDist::WritebackDirty       5627535                       # Transaction distribution (Count)
system.membus.transDist::CleanEvict           9233417                       # Transaction distribution (Count)
system.membus.transDist::UpgradeReq                 7                       # Transaction distribution (Count)
system.membus.transDist::ReadExReq             314768                       # Transaction distribution (Count)
system.membus.transDist::ReadExResp            314768                       # Transaction distribution (Count)
system.membus.transDist::ReadSharedReq       14579687                       # Transaction distribution (Count)
system.membus.pktCount_system.l2cache.mem_side_port::system.mem_ctrl.port     44649869                       # Packet count per connected requestor and responder (Count)
system.membus.pktCount::total                44649869                       # Packet count per connected requestor and responder (Count)
system.membus.pktSize_system.l2cache.mem_side_port::system.mem_ctrl.port   1313407360                       # Cumulative packet size per connected requestor and responder (Byte)
system.membus.pktSize::total               1313407360                       # Cumulative packet size per connected requestor and responder (Byte)
system.membus.snoops                                0                       # Total snoops (Count)
system.membus.snoopTraffic                          0                       # Total snoop traffic (Byte)
system.membus.snoopFanout::samples           14894462                       # Request fanout histogram (Count)
system.membus.snoopFanout::mean                     0                       # Request fanout histogram (Count)
system.membus.snoopFanout::stdev                    0                       # Request fanout histogram (Count)
system.membus.snoopFanout::underflows               0      0.00%      0.00% # Request fanout histogram (Count)
system.membus.snoopFanout::0                 14894462    100.00%    100.00% # Request fanout histogram (Count)
system.membus.snoopFanout::1                        0      0.00%    100.00% # Request fanout histogram (Count)
system.membus.snoopFanout::overflows                0      0.00%    100.00% # Request fanout histogram (Count)
system.membus.snoopFanout::min_value                0                       # Request fanout histogram (Count)
system.membus.snoopFanout::max_value                0                       # Request fanout histogram (Count)
system.membus.snoopFanout::total             14894462                       # Request fanout histogram (Count)
system.membus.power_state.pwrStateResidencyTicks::UNDEFINED 1770743346187                       # Cumulative time (in ticks) in various power states (Tick)
system.membus.reqLayer0.occupancy         29476934871                       # Layer occupancy (ticks) (Tick)
system.membus.reqLayer0.utilization               0.0                       # Layer utilization (Ratio)
system.membus.respLayer0.occupancy        39305379723                       # Layer occupancy (ticks) (Tick)
system.membus.respLayer0.utilization              0.0                       # Layer utilization (Ratio)
system.membus.snoop_filter.totRequests       29755414                       # Total number of requests made to the snoop filter. (Count)
system.membus.snoop_filter.hitSingleRequests     14861260                       # Number of requests hitting in the snoop filter with a single holder of the requested data. (Count)
system.membus.snoop_filter.hitMultiRequests            0                       # Number of requests hitting in the snoop filter with multiple (>1) holders of the requested data. (Count)
system.membus.snoop_filter.totSnoops                0                       # Total number of snoops made to the snoop filter. (Count)
system.membus.snoop_filter.hitSingleSnoops            0                       # Number of snoops hitting in the snoop filter with a single holder of the requested data. (Count)
system.membus.snoop_filter.hitMultiSnoops            0                       # Number of snoops hitting in the snoop filter with multiple (>1) holders of the requested data. (Count)
system.workload.inst.arm                            0                       # number of arm instructions executed (Count)
system.workload.inst.quiesce                        0                       # number of quiesce instructions executed (Count)

---------- End Simulation Statistics   ----------
