
---------- Begin Simulation Statistics ----------
simSeconds                                   1.044325                       # Number of seconds simulated (Second)
simTicks                                 1044325097680                       # Number of ticks simulated (Tick)
finalTick                                1044325097680                       # Number of ticks from beginning of simulation (restored from checkpoints and never reset) (Tick)
simFreq                                  1000000000000                       # The number of ticks per simulated second ((Tick/Second))
hostSeconds                                   5070.65                       # Real time elapsed on the host (Second)
hostTickRate                                205954827                       # The number of ticks simulated per host second (ticks/s) ((Tick/Second))
hostMemory                                    2287740                       # Number of bytes of host memory used (Byte)
simInsts                                   1000000000                       # Number of instructions simulated (Count)
simOps                                     1084388561                       # Number of ops (including micro ops) simulated (Count)
hostInstRate                                   197213                       # Simulator instruction rate (inst/s) ((Count/Second))
hostOpRate                                     213856                       # Simulator op (including micro ops) rate (op/s) ((Count/Second))
system.clk_domain.clock                           500                       # Clock period in ticks (Tick)
system.clk_domain.voltage_domain.voltage            1                       # Voltage in Volts (Volt)
system.cpu.numCycles                       2822500265                       # Number of cpu cycles simulated (Cycle)
system.cpu.numWorkItemsStarted                      0                       # Number of work items this cpu started (Count)
system.cpu.numWorkItemsCompleted                    0                       # Number of work items this cpu completed (Count)
system.cpu.instsAdded                      1419590004                       # Number of instructions added to the IQ (excludes non-spec) (Count)
system.cpu.nonSpecInstsAdded                  3803211                       # Number of non-speculative instructions added to the IQ (Count)
system.cpu.instsIssued                     1412938382                       # Number of instructions issued (Count)
system.cpu.squashedInstsIssued               10314238                       # Number of squashed instructions issued (Count)
system.cpu.squashedInstsExamined            339004588                       # Number of squashed instructions iterated over during squash; mainly for profiling (Count)
system.cpu.squashedOperandsExamined         789998226                       # Number of squashed operands that are examined and possibly removed from graph (Count)
system.cpu.squashedNonSpecRemoved               13771                       # Number of squashed non-spec instructions that were removed (Count)
system.cpu.numIssuedDist::samples          2822447124                       # Number of insts issued each cycle (Count)
system.cpu.numIssuedDist::mean               0.500608                       # Number of insts issued each cycle (Count)
system.cpu.numIssuedDist::stdev              1.329067                       # Number of insts issued each cycle (Count)
system.cpu.numIssuedDist::underflows                0      0.00%      0.00% # Number of insts issued each cycle (Count)
system.cpu.numIssuedDist::0                2334063636     82.70%     82.70% # Number of insts issued each cycle (Count)
system.cpu.numIssuedDist::1                 145774314      5.16%     87.86% # Number of insts issued each cycle (Count)
system.cpu.numIssuedDist::2                 100039607      3.54%     91.41% # Number of insts issued each cycle (Count)
system.cpu.numIssuedDist::3                  76409510      2.71%     94.11% # Number of insts issued each cycle (Count)
system.cpu.numIssuedDist::4                  73502010      2.60%     96.72% # Number of insts issued each cycle (Count)
system.cpu.numIssuedDist::5                  43471007      1.54%     98.26% # Number of insts issued each cycle (Count)
system.cpu.numIssuedDist::6                  26802804      0.95%     99.21% # Number of insts issued each cycle (Count)
system.cpu.numIssuedDist::7                  13397463      0.47%     99.68% # Number of insts issued each cycle (Count)
system.cpu.numIssuedDist::8                   8986773      0.32%    100.00% # Number of insts issued each cycle (Count)
system.cpu.numIssuedDist::overflows                 0      0.00%    100.00% # Number of insts issued each cycle (Count)
system.cpu.numIssuedDist::min_value                 0                       # Number of insts issued each cycle (Count)
system.cpu.numIssuedDist::max_value                 8                       # Number of insts issued each cycle (Count)
system.cpu.numIssuedDist::total            2822447124                       # Number of insts issued each cycle (Count)
system.cpu.statFuBusy::No_OpClass                   0      0.00%      0.00% # attempts to use FU when none available (Count)
system.cpu.statFuBusy::IntAlu                 1132315      2.40%      2.40% # attempts to use FU when none available (Count)
system.cpu.statFuBusy::IntMult                      0      0.00%      2.40% # attempts to use FU when none available (Count)
system.cpu.statFuBusy::IntDiv                       0      0.00%      2.40% # attempts to use FU when none available (Count)
system.cpu.statFuBusy::FloatAdd                     0      0.00%      2.40% # attempts to use FU when none available (Count)
system.cpu.statFuBusy::FloatCmp                     0      0.00%      2.40% # attempts to use FU when none available (Count)
system.cpu.statFuBusy::FloatCvt                     0      0.00%      2.40% # attempts to use FU when none available (Count)
system.cpu.statFuBusy::FloatMult                    0      0.00%      2.40% # attempts to use FU when none available (Count)
system.cpu.statFuBusy::FloatMultAcc                 0      0.00%      2.40% # attempts to use FU when none available (Count)
system.cpu.statFuBusy::FloatDiv                     0      0.00%      2.40% # attempts to use FU when none available (Count)
system.cpu.statFuBusy::FloatMisc                    0      0.00%      2.40% # attempts to use FU when none available (Count)
system.cpu.statFuBusy::FloatSqrt                    0      0.00%      2.40% # attempts to use FU when none available (Count)
system.cpu.statFuBusy::SimdAdd                      0      0.00%      2.40% # attempts to use FU when none available (Count)
system.cpu.statFuBusy::SimdAddAcc                   0      0.00%      2.40% # attempts to use FU when none available (Count)
system.cpu.statFuBusy::SimdAlu                      0      0.00%      2.40% # attempts to use FU when none available (Count)
system.cpu.statFuBusy::SimdCmp                      0      0.00%      2.40% # attempts to use FU when none available (Count)
system.cpu.statFuBusy::SimdCvt                      0      0.00%      2.40% # attempts to use FU when none available (Count)
system.cpu.statFuBusy::SimdMisc                     0      0.00%      2.40% # attempts to use FU when none available (Count)
system.cpu.statFuBusy::SimdMult                     0      0.00%      2.40% # attempts to use FU when none available (Count)
system.cpu.statFuBusy::SimdMultAcc                  0      0.00%      2.40% # attempts to use FU when none available (Count)
system.cpu.statFuBusy::SimdShift                    0      0.00%      2.40% # attempts to use FU when none available (Count)
system.cpu.statFuBusy::SimdShiftAcc                 0      0.00%      2.40% # attempts to use FU when none available (Count)
system.cpu.statFuBusy::SimdDiv                      0      0.00%      2.40% # attempts to use FU when none available (Count)
system.cpu.statFuBusy::SimdSqrt                     0      0.00%      2.40% # attempts to use FU when none available (Count)
system.cpu.statFuBusy::SimdFloatAdd                 0      0.00%      2.40% # attempts to use FU when none available (Count)
system.cpu.statFuBusy::SimdFloatAlu                 0      0.00%      2.40% # attempts to use FU when none available (Count)
system.cpu.statFuBusy::SimdFloatCmp                 0      0.00%      2.40% # attempts to use FU when none available (Count)
system.cpu.statFuBusy::SimdFloatCvt                 0      0.00%      2.40% # attempts to use FU when none available (Count)
system.cpu.statFuBusy::SimdFloatDiv                 0      0.00%      2.40% # attempts to use FU when none available (Count)
system.cpu.statFuBusy::SimdFloatMisc                0      0.00%      2.40% # attempts to use FU when none available (Count)
system.cpu.statFuBusy::SimdFloatMult                0      0.00%      2.40% # attempts to use FU when none available (Count)
system.cpu.statFuBusy::SimdFloatMultAcc             0      0.00%      2.40% # attempts to use FU when none available (Count)
system.cpu.statFuBusy::SimdFloatSqrt                0      0.00%      2.40% # attempts to use FU when none available (Count)
system.cpu.statFuBusy::SimdReduceAdd                0      0.00%      2.40% # attempts to use FU when none available (Count)
system.cpu.statFuBusy::SimdReduceAlu                0      0.00%      2.40% # attempts to use FU when none available (Count)
system.cpu.statFuBusy::SimdReduceCmp                0      0.00%      2.40% # attempts to use FU when none available (Count)
system.cpu.statFuBusy::SimdFloatReduceAdd            0      0.00%      2.40% # attempts to use FU when none available (Count)
system.cpu.statFuBusy::SimdFloatReduceCmp            0      0.00%      2.40% # attempts to use FU when none available (Count)
system.cpu.statFuBusy::SimdAes                      0      0.00%      2.40% # attempts to use FU when none available (Count)
system.cpu.statFuBusy::SimdAesMix                   0      0.00%      2.40% # attempts to use FU when none available (Count)
system.cpu.statFuBusy::SimdSha1Hash                 0      0.00%      2.40% # attempts to use FU when none available (Count)
system.cpu.statFuBusy::SimdSha1Hash2                0      0.00%      2.40% # attempts to use FU when none available (Count)
system.cpu.statFuBusy::SimdSha256Hash               0      0.00%      2.40% # attempts to use FU when none available (Count)
system.cpu.statFuBusy::SimdSha256Hash2              0      0.00%      2.40% # attempts to use FU when none available (Count)
system.cpu.statFuBusy::SimdShaSigma2                0      0.00%      2.40% # attempts to use FU when none available (Count)
system.cpu.statFuBusy::SimdShaSigma3                0      0.00%      2.40% # attempts to use FU when none available (Count)
system.cpu.statFuBusy::SimdPredAlu                  0      0.00%      2.40% # attempts to use FU when none available (Count)
system.cpu.statFuBusy::MemRead               33530183     71.10%     73.50% # attempts to use FU when none available (Count)
system.cpu.statFuBusy::MemWrite              12497116     26.50%    100.00% # attempts to use FU when none available (Count)
system.cpu.statFuBusy::FloatMemRead                 0      0.00%    100.00% # attempts to use FU when none available (Count)
system.cpu.statFuBusy::FloatMemWrite                0      0.00%    100.00% # attempts to use FU when none available (Count)
system.cpu.statFuBusy::IprAccess                    0      0.00%    100.00% # attempts to use FU when none available (Count)
system.cpu.statFuBusy::InstPrefetch                 0      0.00%    100.00% # attempts to use FU when none available (Count)
system.cpu.statIssuedInstType_0::No_OpClass            6      0.00%      0.00% # Number of instructions issued per FU type, per thread (Count)
system.cpu.statIssuedInstType_0::IntAlu     826857562     58.52%     58.52% # Number of instructions issued per FU type, per thread (Count)
system.cpu.statIssuedInstType_0::IntMult      2714708      0.19%     58.71% # Number of instructions issued per FU type, per thread (Count)
system.cpu.statIssuedInstType_0::IntDiv             0      0.00%     58.71% # Number of instructions issued per FU type, per thread (Count)
system.cpu.statIssuedInstType_0::FloatAdd            0      0.00%     58.71% # Number of instructions issued per FU type, per thread (Count)
system.cpu.statIssuedInstType_0::FloatCmp            0      0.00%     58.71% # Number of instructions issued per FU type, per thread (Count)
system.cpu.statIssuedInstType_0::FloatCvt            0      0.00%     58.71% # Number of instructions issued per FU type, per thread (Count)
system.cpu.statIssuedInstType_0::FloatMult            0      0.00%     58.71% # Number of instructions issued per FU type, per thread (Count)
system.cpu.statIssuedInstType_0::FloatMultAcc            0      0.00%     58.71% # Number of instructions issued per FU type, per thread (Count)
system.cpu.statIssuedInstType_0::FloatDiv            0      0.00%     58.71% # Number of instructions issued per FU type, per thread (Count)
system.cpu.statIssuedInstType_0::FloatMisc            0      0.00%     58.71% # Number of instructions issued per FU type, per thread (Count)
system.cpu.statIssuedInstType_0::FloatSqrt            0      0.00%     58.71% # Number of instructions issued per FU type, per thread (Count)
system.cpu.statIssuedInstType_0::SimdAdd            0      0.00%     58.71% # Number of instructions issued per FU type, per thread (Count)
system.cpu.statIssuedInstType_0::SimdAddAcc            0      0.00%     58.71% # Number of instructions issued per FU type, per thread (Count)
system.cpu.statIssuedInstType_0::SimdAlu            0      0.00%     58.71% # Number of instructions issued per FU type, per thread (Count)
system.cpu.statIssuedInstType_0::SimdCmp            0      0.00%     58.71% # Number of instructions issued per FU type, per thread (Count)
system.cpu.statIssuedInstType_0::SimdCvt            0      0.00%     58.71% # Number of instructions issued per FU type, per thread (Count)
system.cpu.statIssuedInstType_0::SimdMisc            0      0.00%     58.71% # Number of instructions issued per FU type, per thread (Count)
system.cpu.statIssuedInstType_0::SimdMult            0      0.00%     58.71% # Number of instructions issued per FU type, per thread (Count)
system.cpu.statIssuedInstType_0::SimdMultAcc            0      0.00%     58.71% # Number of instructions issued per FU type, per thread (Count)
system.cpu.statIssuedInstType_0::SimdShift            0      0.00%     58.71% # Number of instructions issued per FU type, per thread (Count)
system.cpu.statIssuedInstType_0::SimdShiftAcc            0      0.00%     58.71% # Number of instructions issued per FU type, per thread (Count)
system.cpu.statIssuedInstType_0::SimdDiv            0      0.00%     58.71% # Number of instructions issued per FU type, per thread (Count)
system.cpu.statIssuedInstType_0::SimdSqrt            0      0.00%     58.71% # Number of instructions issued per FU type, per thread (Count)
system.cpu.statIssuedInstType_0::SimdFloatAdd            0      0.00%     58.71% # Number of instructions issued per FU type, per thread (Count)
system.cpu.statIssuedInstType_0::SimdFloatAlu            0      0.00%     58.71% # Number of instructions issued per FU type, per thread (Count)
system.cpu.statIssuedInstType_0::SimdFloatCmp            0      0.00%     58.71% # Number of instructions issued per FU type, per thread (Count)
system.cpu.statIssuedInstType_0::SimdFloatCvt            0      0.00%     58.71% # Number of instructions issued per FU type, per thread (Count)
system.cpu.statIssuedInstType_0::SimdFloatDiv            0      0.00%     58.71% # Number of instructions issued per FU type, per thread (Count)
system.cpu.statIssuedInstType_0::SimdFloatMisc            3      0.00%     58.71% # Number of instructions issued per FU type, per thread (Count)
system.cpu.statIssuedInstType_0::SimdFloatMult            0      0.00%     58.71% # Number of instructions issued per FU type, per thread (Count)
system.cpu.statIssuedInstType_0::SimdFloatMultAcc            0      0.00%     58.71% # Number of instructions issued per FU type, per thread (Count)
system.cpu.statIssuedInstType_0::SimdFloatSqrt            0      0.00%     58.71% # Number of instructions issued per FU type, per thread (Count)
system.cpu.statIssuedInstType_0::SimdReduceAdd            0      0.00%     58.71% # Number of instructions issued per FU type, per thread (Count)
system.cpu.statIssuedInstType_0::SimdReduceAlu            0      0.00%     58.71% # Number of instructions issued per FU type, per thread (Count)
system.cpu.statIssuedInstType_0::SimdReduceCmp            0      0.00%     58.71% # Number of instructions issued per FU type, per thread (Count)
system.cpu.statIssuedInstType_0::SimdFloatReduceAdd            0      0.00%     58.71% # Number of instructions issued per FU type, per thread (Count)
system.cpu.statIssuedInstType_0::SimdFloatReduceCmp            0      0.00%     58.71% # Number of instructions issued per FU type, per thread (Count)
system.cpu.statIssuedInstType_0::SimdAes            0      0.00%     58.71% # Number of instructions issued per FU type, per thread (Count)
system.cpu.statIssuedInstType_0::SimdAesMix            0      0.00%     58.71% # Number of instructions issued per FU type, per thread (Count)
system.cpu.statIssuedInstType_0::SimdSha1Hash            0      0.00%     58.71% # Number of instructions issued per FU type, per thread (Count)
system.cpu.statIssuedInstType_0::SimdSha1Hash2            0      0.00%     58.71% # Number of instructions issued per FU type, per thread (Count)
system.cpu.statIssuedInstType_0::SimdSha256Hash            0      0.00%     58.71% # Number of instructions issued per FU type, per thread (Count)
system.cpu.statIssuedInstType_0::SimdSha256Hash2            0      0.00%     58.71% # Number of instructions issued per FU type, per thread (Count)
system.cpu.statIssuedInstType_0::SimdShaSigma2            0      0.00%     58.71% # Number of instructions issued per FU type, per thread (Count)
system.cpu.statIssuedInstType_0::SimdShaSigma3            0      0.00%     58.71% # Number of instructions issued per FU type, per thread (Count)
system.cpu.statIssuedInstType_0::SimdPredAlu            0      0.00%     58.71% # Number of instructions issued per FU type, per thread (Count)
system.cpu.statIssuedInstType_0::MemRead    451693778     31.97%     90.68% # Number of instructions issued per FU type, per thread (Count)
system.cpu.statIssuedInstType_0::MemWrite    131672325      9.32%    100.00% # Number of instructions issued per FU type, per thread (Count)
system.cpu.statIssuedInstType_0::FloatMemRead            0      0.00%    100.00% # Number of instructions issued per FU type, per thread (Count)
system.cpu.statIssuedInstType_0::FloatMemWrite            0      0.00%    100.00% # Number of instructions issued per FU type, per thread (Count)
system.cpu.statIssuedInstType_0::IprAccess            0      0.00%    100.00% # Number of instructions issued per FU type, per thread (Count)
system.cpu.statIssuedInstType_0::InstPrefetch            0      0.00%    100.00% # Number of instructions issued per FU type, per thread (Count)
system.cpu.statIssuedInstType_0::total     1412938382                       # Number of instructions issued per FU type, per thread (Count)
system.cpu.issueRate                         0.500598                       # Inst issue rate ((Count/Cycle))
system.cpu.fuBusy                            47159614                       # FU busy when requested (Count)
system.cpu.fuBusyRate                        0.033377                       # FU busy rate (busy events/executed inst) ((Count/Count))
system.cpu.intInstQueueReads               5705797740                       # Number of integer instruction queue reads (Count)
system.cpu.intInstQueueWrites              1763266358                       # Number of integer instruction queue writes (Count)
system.cpu.intInstQueueWakeupAccesses      1240037187                       # Number of integer instruction queue wakeup accesses (Count)
system.cpu.fpInstQueueReads                         0                       # Number of floating instruction queue reads (Count)
system.cpu.fpInstQueueWrites                        0                       # Number of floating instruction queue writes (Count)
system.cpu.fpInstQueueWakeupAccesses                0                       # Number of floating instruction queue wakeup accesses (Count)
system.cpu.vecInstQueueReads                        0                       # Number of vector instruction queue reads (Count)
system.cpu.vecInstQueueWrites                       0                       # Number of vector instruction queue writes (Count)
system.cpu.vecInstQueueWakeupAccesses               0                       # Number of vector instruction queue wakeup accesses (Count)
system.cpu.intAluAccesses                  1460097990                       # Number of integer alu accesses (Count)
system.cpu.fpAluAccesses                            0                       # Number of floating point alu accesses (Count)
system.cpu.vecAluAccesses                           0                       # Number of vector alu accesses (Count)
system.cpu.numInsts                        1400685293                       # Number of executed instructions (Count)
system.cpu.numLoadInsts                     446896078                       # Number of load instructions executed (Count)
system.cpu.numSquashedInsts                  12253089                       # Number of squashed instructions skipped in execute (Count)
system.cpu.numSwp                                   0                       # Number of swp insts executed (Count)
system.cpu.numNop                                  31                       # Number of nop insts executed (Count)
system.cpu.numRefs                          576838610                       # Number of memory reference insts executed (Count)
system.cpu.numBranches                      268669894                       # Number of branches executed (Count)
system.cpu.numStoreInsts                    129942532                       # Number of stores executed (Count)
system.cpu.numRate                           0.496257                       # Inst execution rate ((Count/Cycle))
system.cpu.timesIdled                             390                       # Number of times that the entire CPU went into an idle state and unscheduled itself (Count)
system.cpu.idleCycles                           53141                       # Total number of cycles that the CPU has spent unscheduled due to idling (Cycle)
system.cpu.committedInsts                  1000000000                       # Number of Instructions Simulated (Count)
system.cpu.committedOps                    1084388561                       # Number of Ops (including micro ops) Simulated (Count)
system.cpu.cpi                               2.822500                       # CPI: Cycles Per Instruction ((Cycle/Count))
system.cpu.totalCpi                          2.822500                       # CPI: Total CPI of All Threads ((Cycle/Count))
system.cpu.ipc                               0.354296                       # IPC: Instructions Per Cycle ((Count/Cycle))
system.cpu.totalIpc                          0.354296                       # IPC: Total IPC of All Threads ((Count/Cycle))
system.cpu.intRegfileReads                 1427922194                       # Number of integer regfile reads (Count)
system.cpu.intRegfileWrites                 651561358                       # Number of integer regfile writes (Count)
system.cpu.vecRegfileReads                         16                       # number of vector regfile reads (Count)
system.cpu.ccRegfileReads                  5020130016                       # number of cc regfile reads (Count)
system.cpu.ccRegfileWrites                  837482829                       # number of cc regfile writes (Count)
system.cpu.miscRegfileReads                 429756643                       # number of misc regfile reads (Count)
system.cpu.miscRegfileWrites                  5052022                       # number of misc regfile writes (Count)
system.cpu.MemDepUnit__0.insertedLoads      346714373                       # Number of loads inserted to the mem dependence unit. (Count)
system.cpu.MemDepUnit__0.insertedStores     143619785                       # Number of stores inserted to the mem dependence unit. (Count)
system.cpu.MemDepUnit__0.conflictingLoads     47685916                       # Number of conflicting loads. (Count)
system.cpu.MemDepUnit__0.conflictingStores     33063268                       # Number of conflicting stores. (Count)
system.cpu.MemDepUnit__1.insertedLoads              0                       # Number of loads inserted to the mem dependence unit. (Count)
system.cpu.MemDepUnit__1.insertedStores             0                       # Number of stores inserted to the mem dependence unit. (Count)
system.cpu.MemDepUnit__1.conflictingLoads            0                       # Number of conflicting loads. (Count)
system.cpu.MemDepUnit__1.conflictingStores            0                       # Number of conflicting stores. (Count)
system.cpu.MemDepUnit__2.insertedLoads              0                       # Number of loads inserted to the mem dependence unit. (Count)
system.cpu.MemDepUnit__2.insertedStores             0                       # Number of stores inserted to the mem dependence unit. (Count)
system.cpu.MemDepUnit__2.conflictingLoads            0                       # Number of conflicting loads. (Count)
system.cpu.MemDepUnit__2.conflictingStores            0                       # Number of conflicting stores. (Count)
system.cpu.MemDepUnit__3.insertedLoads              0                       # Number of loads inserted to the mem dependence unit. (Count)
system.cpu.MemDepUnit__3.insertedStores             0                       # Number of stores inserted to the mem dependence unit. (Count)
system.cpu.MemDepUnit__3.conflictingLoads            0                       # Number of conflicting loads. (Count)
system.cpu.MemDepUnit__3.conflictingStores            0                       # Number of conflicting stores. (Count)
system.cpu.branchPred.lookups               353841523                       # Number of BP lookups (Count)
system.cpu.branchPred.condPredicted         299045170                       # Number of conditional branches predicted (Count)
system.cpu.branchPred.condIncorrect          10398502                       # Number of conditional branches incorrect (Count)
system.cpu.branchPred.BTBLookups            152522985                       # Number of BTB lookups (Count)
system.cpu.branchPred.BTBHits               148833298                       # Number of BTB hits (Count)
system.cpu.branchPred.BTBHitRatio            0.975809                       # BTB Hit Ratio (Ratio)
system.cpu.branchPred.RASUsed                10709007                       # Number of times the RAS was used to get a target. (Count)
system.cpu.branchPred.RASIncorrect                 64                       # Number of incorrect RAS predictions. (Count)
system.cpu.branchPred.indirectLookups         2551251                       # Number of indirect predictor lookups. (Count)
system.cpu.branchPred.indirectHits            1338076                       # Number of indirect target hits. (Count)
system.cpu.branchPred.indirectMisses          1213175                       # Number of indirect misses. (Count)
system.cpu.branchPred.indirectMispredicted         9087                       # Number of mispredicted indirect branches. (Count)
system.cpu.commit.commitSquashedInsts       340065768                       # The number of squashed insts skipped by commit (Count)
system.cpu.commit.commitNonSpecStalls         3789440                       # The number of times commit has been forced to stall to communicate backwards (Count)
system.cpu.commit.branchMispredicts           8338858                       # The number of times a branch was mispredicted (Count)
system.cpu.commit.numCommittedDist::samples   2772610398                       # Number of insts commited each cycle (Count)
system.cpu.commit.numCommittedDist::mean     0.391107                       # Number of insts commited each cycle (Count)
system.cpu.commit.numCommittedDist::stdev     1.377297                       # Number of insts commited each cycle (Count)
system.cpu.commit.numCommittedDist::underflows            0      0.00%      0.00% # Number of insts commited each cycle (Count)
system.cpu.commit.numCommittedDist::0      2417032609     87.18%     87.18% # Number of insts commited each cycle (Count)
system.cpu.commit.numCommittedDist::1       159732309      5.76%     92.94% # Number of insts commited each cycle (Count)
system.cpu.commit.numCommittedDist::2        60077232      2.17%     95.10% # Number of insts commited each cycle (Count)
system.cpu.commit.numCommittedDist::3        21420041      0.77%     95.88% # Number of insts commited each cycle (Count)
system.cpu.commit.numCommittedDist::4        21401288      0.77%     96.65% # Number of insts commited each cycle (Count)
system.cpu.commit.numCommittedDist::5        19454803      0.70%     97.35% # Number of insts commited each cycle (Count)
system.cpu.commit.numCommittedDist::6         8556429      0.31%     97.66% # Number of insts commited each cycle (Count)
system.cpu.commit.numCommittedDist::7        13461571      0.49%     98.14% # Number of insts commited each cycle (Count)
system.cpu.commit.numCommittedDist::8        51474116      1.86%    100.00% # Number of insts commited each cycle (Count)
system.cpu.commit.numCommittedDist::overflows            0      0.00%    100.00% # Number of insts commited each cycle (Count)
system.cpu.commit.numCommittedDist::min_value            0                       # Number of insts commited each cycle (Count)
system.cpu.commit.numCommittedDist::max_value            8                       # Number of insts commited each cycle (Count)
system.cpu.commit.numCommittedDist::total   2772610398                       # Number of insts commited each cycle (Count)
system.cpu.commit.instsCommitted           1000000001                       # Number of instructions committed (Count)
system.cpu.commit.opsCommitted             1084388562                       # Number of ops (including micro ops) committed (Count)
system.cpu.commit.memRefs                   371594264                       # Number of memory references committed (Count)
system.cpu.commit.loads                     257232843                       # Number of loads committed (Count)
system.cpu.commit.amos                              0                       # Number of atomic instructions committed (Count)
system.cpu.commit.membars                     2526011                       # Number of memory barriers committed (Count)
system.cpu.commit.branches                  234516986                       # Number of branches committed (Count)
system.cpu.commit.vectorInstructions                0                       # Number of committed Vector instructions. (Count)
system.cpu.commit.floating                          0                       # Number of committed floating point instructions. (Count)
system.cpu.commit.integer                   857333723                       # Number of committed integer instructions. (Count)
system.cpu.commit.functionCalls               6817153                       # Number of function calls committed. (Count)
system.cpu.commit.committedInstType_0::No_OpClass            0      0.00%      0.00% # Class of committed instruction (Count)
system.cpu.commit.committedInstType_0::IntAlu    710093877     65.48%     65.48% # Class of committed instruction (Count)
system.cpu.commit.committedInstType_0::IntMult      2700418      0.25%     65.73% # Class of committed instruction (Count)
system.cpu.commit.committedInstType_0::IntDiv            0      0.00%     65.73% # Class of committed instruction (Count)
system.cpu.commit.committedInstType_0::FloatAdd            0      0.00%     65.73% # Class of committed instruction (Count)
system.cpu.commit.committedInstType_0::FloatCmp            0      0.00%     65.73% # Class of committed instruction (Count)
system.cpu.commit.committedInstType_0::FloatCvt            0      0.00%     65.73% # Class of committed instruction (Count)
system.cpu.commit.committedInstType_0::FloatMult            0      0.00%     65.73% # Class of committed instruction (Count)
system.cpu.commit.committedInstType_0::FloatMultAcc            0      0.00%     65.73% # Class of committed instruction (Count)
system.cpu.commit.committedInstType_0::FloatDiv            0      0.00%     65.73% # Class of committed instruction (Count)
system.cpu.commit.committedInstType_0::FloatMisc            0      0.00%     65.73% # Class of committed instruction (Count)
system.cpu.commit.committedInstType_0::FloatSqrt            0      0.00%     65.73% # Class of committed instruction (Count)
system.cpu.commit.committedInstType_0::SimdAdd            0      0.00%     65.73% # Class of committed instruction (Count)
system.cpu.commit.committedInstType_0::SimdAddAcc            0      0.00%     65.73% # Class of committed instruction (Count)
system.cpu.commit.committedInstType_0::SimdAlu            0      0.00%     65.73% # Class of committed instruction (Count)
system.cpu.commit.committedInstType_0::SimdCmp            0      0.00%     65.73% # Class of committed instruction (Count)
system.cpu.commit.committedInstType_0::SimdCvt            0      0.00%     65.73% # Class of committed instruction (Count)
system.cpu.commit.committedInstType_0::SimdMisc            0      0.00%     65.73% # Class of committed instruction (Count)
system.cpu.commit.committedInstType_0::SimdMult            0      0.00%     65.73% # Class of committed instruction (Count)
system.cpu.commit.committedInstType_0::SimdMultAcc            0      0.00%     65.73% # Class of committed instruction (Count)
system.cpu.commit.committedInstType_0::SimdShift            0      0.00%     65.73% # Class of committed instruction (Count)
system.cpu.commit.committedInstType_0::SimdShiftAcc            0      0.00%     65.73% # Class of committed instruction (Count)
system.cpu.commit.committedInstType_0::SimdDiv            0      0.00%     65.73% # Class of committed instruction (Count)
system.cpu.commit.committedInstType_0::SimdSqrt            0      0.00%     65.73% # Class of committed instruction (Count)
system.cpu.commit.committedInstType_0::SimdFloatAdd            0      0.00%     65.73% # Class of committed instruction (Count)
system.cpu.commit.committedInstType_0::SimdFloatAlu            0      0.00%     65.73% # Class of committed instruction (Count)
system.cpu.commit.committedInstType_0::SimdFloatCmp            0      0.00%     65.73% # Class of committed instruction (Count)
system.cpu.commit.committedInstType_0::SimdFloatCvt            0      0.00%     65.73% # Class of committed instruction (Count)
system.cpu.commit.committedInstType_0::SimdFloatDiv            0      0.00%     65.73% # Class of committed instruction (Count)
system.cpu.commit.committedInstType_0::SimdFloatMisc            3      0.00%     65.73% # Class of committed instruction (Count)
system.cpu.commit.committedInstType_0::SimdFloatMult            0      0.00%     65.73% # Class of committed instruction (Count)
system.cpu.commit.committedInstType_0::SimdFloatMultAcc            0      0.00%     65.73% # Class of committed instruction (Count)
system.cpu.commit.committedInstType_0::SimdFloatSqrt            0      0.00%     65.73% # Class of committed instruction (Count)
system.cpu.commit.committedInstType_0::SimdReduceAdd            0      0.00%     65.73% # Class of committed instruction (Count)
system.cpu.commit.committedInstType_0::SimdReduceAlu            0      0.00%     65.73% # Class of committed instruction (Count)
system.cpu.commit.committedInstType_0::SimdReduceCmp            0      0.00%     65.73% # Class of committed instruction (Count)
system.cpu.commit.committedInstType_0::SimdFloatReduceAdd            0      0.00%     65.73% # Class of committed instruction (Count)
system.cpu.commit.committedInstType_0::SimdFloatReduceCmp            0      0.00%     65.73% # Class of committed instruction (Count)
system.cpu.commit.committedInstType_0::SimdAes            0      0.00%     65.73% # Class of committed instruction (Count)
system.cpu.commit.committedInstType_0::SimdAesMix            0      0.00%     65.73% # Class of committed instruction (Count)
system.cpu.commit.committedInstType_0::SimdSha1Hash            0      0.00%     65.73% # Class of committed instruction (Count)
system.cpu.commit.committedInstType_0::SimdSha1Hash2            0      0.00%     65.73% # Class of committed instruction (Count)
system.cpu.commit.committedInstType_0::SimdSha256Hash            0      0.00%     65.73% # Class of committed instruction (Count)
system.cpu.commit.committedInstType_0::SimdSha256Hash2            0      0.00%     65.73% # Class of committed instruction (Count)
system.cpu.commit.committedInstType_0::SimdShaSigma2            0      0.00%     65.73% # Class of committed instruction (Count)
system.cpu.commit.committedInstType_0::SimdShaSigma3            0      0.00%     65.73% # Class of committed instruction (Count)
system.cpu.commit.committedInstType_0::SimdPredAlu            0      0.00%     65.73% # Class of committed instruction (Count)
system.cpu.commit.committedInstType_0::MemRead    257232843     23.72%     89.45% # Class of committed instruction (Count)
system.cpu.commit.committedInstType_0::MemWrite    114361421     10.55%    100.00% # Class of committed instruction (Count)
system.cpu.commit.committedInstType_0::FloatMemRead            0      0.00%    100.00% # Class of committed instruction (Count)
system.cpu.commit.committedInstType_0::FloatMemWrite            0      0.00%    100.00% # Class of committed instruction (Count)
system.cpu.commit.committedInstType_0::IprAccess            0      0.00%    100.00% # Class of committed instruction (Count)
system.cpu.commit.committedInstType_0::InstPrefetch            0      0.00%    100.00% # Class of committed instruction (Count)
system.cpu.commit.committedInstType_0::total   1084388562                       # Class of committed instruction (Count)
system.cpu.commit.commitEligibleSamples      51474116                       # number cycles where commit BW limit reached (Cycle)
system.cpu.dcache.demandHits::cpu.data      329891058                       # number of demand (read+write) hits (Count)
system.cpu.dcache.demandHits::total         329891058                       # number of demand (read+write) hits (Count)
system.cpu.dcache.overallHits::cpu.data     330111159                       # number of overall hits (Count)
system.cpu.dcache.overallHits::total        330111159                       # number of overall hits (Count)
system.cpu.dcache.demandMisses::cpu.data     69451899                       # number of demand (read+write) misses (Count)
system.cpu.dcache.demandMisses::total        69451899                       # number of demand (read+write) misses (Count)
system.cpu.dcache.overallMisses::cpu.data     69453024                       # number of overall misses (Count)
system.cpu.dcache.overallMisses::total       69453024                       # number of overall misses (Count)
system.cpu.dcache.demandMissLatency::cpu.data 3209029611504                       # number of demand (read+write) miss ticks (Tick)
system.cpu.dcache.demandMissLatency::total 3209029611504                       # number of demand (read+write) miss ticks (Tick)
system.cpu.dcache.overallMissLatency::cpu.data 3209029611504                       # number of overall miss ticks (Tick)
system.cpu.dcache.overallMissLatency::total 3209029611504                       # number of overall miss ticks (Tick)
system.cpu.dcache.demandAccesses::cpu.data    399342957                       # number of demand (read+write) accesses (Count)
system.cpu.dcache.demandAccesses::total     399342957                       # number of demand (read+write) accesses (Count)
system.cpu.dcache.overallAccesses::cpu.data    399564183                       # number of overall (read+write) accesses (Count)
system.cpu.dcache.overallAccesses::total    399564183                       # number of overall (read+write) accesses (Count)
system.cpu.dcache.demandMissRate::cpu.data     0.173915                       # miss rate for demand accesses (Ratio)
system.cpu.dcache.demandMissRate::total      0.173915                       # miss rate for demand accesses (Ratio)
system.cpu.dcache.overallMissRate::cpu.data     0.173822                       # miss rate for overall accesses (Ratio)
system.cpu.dcache.overallMissRate::total     0.173822                       # miss rate for overall accesses (Ratio)
system.cpu.dcache.demandAvgMissLatency::cpu.data 46205.066495                       # average overall miss latency in ticks ((Tick/Count))
system.cpu.dcache.demandAvgMissLatency::total 46205.066495                       # average overall miss latency in ticks ((Tick/Count))
system.cpu.dcache.overallAvgMissLatency::cpu.data 46204.318065                       # average overall miss latency ((Tick/Count))
system.cpu.dcache.overallAvgMissLatency::total 46204.318065                       # average overall miss latency ((Tick/Count))
system.cpu.dcache.blockedCycles::no_mshrs    469822236                       # number of cycles access was blocked (Cycle)
system.cpu.dcache.blockedCycles::no_targets       137193                       # number of cycles access was blocked (Cycle)
system.cpu.dcache.blockedCauses::no_mshrs     16655862                       # number of times access was blocked (Count)
system.cpu.dcache.blockedCauses::no_targets         3730                       # number of times access was blocked (Count)
system.cpu.dcache.avgBlocked::no_mshrs      28.207621                       # average number of cycles each access was blocked ((Cycle/Count))
system.cpu.dcache.avgBlocked::no_targets    36.780965                       # average number of cycles each access was blocked ((Cycle/Count))
system.cpu.dcache.writebacks::writebacks     10010826                       # number of writebacks (Count)
system.cpu.dcache.writebacks::total          10010826                       # number of writebacks (Count)
system.cpu.dcache.demandMshrHits::cpu.data     36904549                       # number of demand (read+write) MSHR hits (Count)
system.cpu.dcache.demandMshrHits::total      36904549                       # number of demand (read+write) MSHR hits (Count)
system.cpu.dcache.overallMshrHits::cpu.data     36904549                       # number of overall MSHR hits (Count)
system.cpu.dcache.overallMshrHits::total     36904549                       # number of overall MSHR hits (Count)
system.cpu.dcache.demandMshrMisses::cpu.data     32547350                       # number of demand (read+write) MSHR misses (Count)
system.cpu.dcache.demandMshrMisses::total     32547350                       # number of demand (read+write) MSHR misses (Count)
system.cpu.dcache.overallMshrMisses::cpu.data     32547620                       # number of overall MSHR misses (Count)
system.cpu.dcache.overallMshrMisses::total     32547620                       # number of overall MSHR misses (Count)
system.cpu.dcache.demandMshrMissLatency::cpu.data 1485459697495                       # number of demand (read+write) MSHR miss ticks (Tick)
system.cpu.dcache.demandMshrMissLatency::total 1485459697495                       # number of demand (read+write) MSHR miss ticks (Tick)
system.cpu.dcache.overallMshrMissLatency::cpu.data 1485463449555                       # number of overall MSHR miss ticks (Tick)
system.cpu.dcache.overallMshrMissLatency::total 1485463449555                       # number of overall MSHR miss ticks (Tick)
system.cpu.dcache.demandMshrMissRate::cpu.data     0.081502                       # mshr miss ratio for demand accesses (Ratio)
system.cpu.dcache.demandMshrMissRate::total     0.081502                       # mshr miss ratio for demand accesses (Ratio)
system.cpu.dcache.overallMshrMissRate::cpu.data     0.081458                       # mshr miss ratio for overall accesses (Ratio)
system.cpu.dcache.overallMshrMissRate::total     0.081458                       # mshr miss ratio for overall accesses (Ratio)
system.cpu.dcache.demandAvgMshrMissLatency::cpu.data 45639.958322                       # average overall mshr miss latency ((Tick/Count))
system.cpu.dcache.demandAvgMshrMissLatency::total 45639.958322                       # average overall mshr miss latency ((Tick/Count))
system.cpu.dcache.overallAvgMshrMissLatency::cpu.data 45639.694993                       # average overall mshr miss latency ((Tick/Count))
system.cpu.dcache.overallAvgMshrMissLatency::total 45639.694993                       # average overall mshr miss latency ((Tick/Count))
system.cpu.dcache.replacements               32547100                       # number of replacements (Count)
system.cpu.dcache.LoadLockedReq.hits::cpu.data      1263003                       # number of LoadLockedReq hits (Count)
system.cpu.dcache.LoadLockedReq.hits::total      1263003                       # number of LoadLockedReq hits (Count)
system.cpu.dcache.LoadLockedReq.misses::cpu.data            2                       # number of LoadLockedReq misses (Count)
system.cpu.dcache.LoadLockedReq.misses::total            2                       # number of LoadLockedReq misses (Count)
system.cpu.dcache.LoadLockedReq.missLatency::cpu.data       146520                       # number of LoadLockedReq miss ticks (Tick)
system.cpu.dcache.LoadLockedReq.missLatency::total       146520                       # number of LoadLockedReq miss ticks (Tick)
system.cpu.dcache.LoadLockedReq.accesses::cpu.data      1263005                       # number of LoadLockedReq accesses(hits+misses) (Count)
system.cpu.dcache.LoadLockedReq.accesses::total      1263005                       # number of LoadLockedReq accesses(hits+misses) (Count)
system.cpu.dcache.LoadLockedReq.missRate::cpu.data     0.000002                       # miss rate for LoadLockedReq accesses (Ratio)
system.cpu.dcache.LoadLockedReq.missRate::total     0.000002                       # miss rate for LoadLockedReq accesses (Ratio)
system.cpu.dcache.LoadLockedReq.avgMissLatency::cpu.data        73260                       # average LoadLockedReq miss latency ((Tick/Count))
system.cpu.dcache.LoadLockedReq.avgMissLatency::total        73260                       # average LoadLockedReq miss latency ((Tick/Count))
system.cpu.dcache.LoadLockedReq.mshrMisses::cpu.data            2                       # number of LoadLockedReq MSHR misses (Count)
system.cpu.dcache.LoadLockedReq.mshrMisses::total            2                       # number of LoadLockedReq MSHR misses (Count)
system.cpu.dcache.LoadLockedReq.mshrMissLatency::cpu.data       144500                       # number of LoadLockedReq MSHR miss ticks (Tick)
system.cpu.dcache.LoadLockedReq.mshrMissLatency::total       144500                       # number of LoadLockedReq MSHR miss ticks (Tick)
system.cpu.dcache.LoadLockedReq.mshrMissRate::cpu.data     0.000002                       # mshr miss rate for LoadLockedReq accesses (Ratio)
system.cpu.dcache.LoadLockedReq.mshrMissRate::total     0.000002                       # mshr miss rate for LoadLockedReq accesses (Ratio)
system.cpu.dcache.LoadLockedReq.avgMshrMissLatency::cpu.data        72250                       # average LoadLockedReq mshr miss latency ((Tick/Count))
system.cpu.dcache.LoadLockedReq.avgMshrMissLatency::total        72250                       # average LoadLockedReq mshr miss latency ((Tick/Count))
system.cpu.dcache.ReadReq.hits::cpu.data    222068380                       # number of ReadReq hits (Count)
system.cpu.dcache.ReadReq.hits::total       222068380                       # number of ReadReq hits (Count)
system.cpu.dcache.ReadReq.misses::cpu.data     66915542                       # number of ReadReq misses (Count)
system.cpu.dcache.ReadReq.misses::total      66915542                       # number of ReadReq misses (Count)
system.cpu.dcache.ReadReq.missLatency::cpu.data 3103360957380                       # number of ReadReq miss ticks (Tick)
system.cpu.dcache.ReadReq.missLatency::total 3103360957380                       # number of ReadReq miss ticks (Tick)
system.cpu.dcache.ReadReq.accesses::cpu.data    288983922                       # number of ReadReq accesses(hits+misses) (Count)
system.cpu.dcache.ReadReq.accesses::total    288983922                       # number of ReadReq accesses(hits+misses) (Count)
system.cpu.dcache.ReadReq.missRate::cpu.data     0.231555                       # miss rate for ReadReq accesses (Ratio)
system.cpu.dcache.ReadReq.missRate::total     0.231555                       # miss rate for ReadReq accesses (Ratio)
system.cpu.dcache.ReadReq.avgMissLatency::cpu.data 46377.281938                       # average ReadReq miss latency ((Tick/Count))
system.cpu.dcache.ReadReq.avgMissLatency::total 46377.281938                       # average ReadReq miss latency ((Tick/Count))
system.cpu.dcache.ReadReq.mshrHits::cpu.data     35158428                       # number of ReadReq MSHR hits (Count)
system.cpu.dcache.ReadReq.mshrHits::total     35158428                       # number of ReadReq MSHR hits (Count)
system.cpu.dcache.ReadReq.mshrMisses::cpu.data     31757114                       # number of ReadReq MSHR misses (Count)
system.cpu.dcache.ReadReq.mshrMisses::total     31757114                       # number of ReadReq MSHR misses (Count)
system.cpu.dcache.ReadReq.mshrMissLatency::cpu.data 1451481972740                       # number of ReadReq MSHR miss ticks (Tick)
system.cpu.dcache.ReadReq.mshrMissLatency::total 1451481972740                       # number of ReadReq MSHR miss ticks (Tick)
system.cpu.dcache.ReadReq.mshrMissRate::cpu.data     0.109892                       # mshr miss rate for ReadReq accesses (Ratio)
system.cpu.dcache.ReadReq.mshrMissRate::total     0.109892                       # mshr miss rate for ReadReq accesses (Ratio)
system.cpu.dcache.ReadReq.avgMshrMissLatency::cpu.data 45705.726683                       # average ReadReq mshr miss latency ((Tick/Count))
system.cpu.dcache.ReadReq.avgMshrMissLatency::total 45705.726683                       # average ReadReq mshr miss latency ((Tick/Count))
system.cpu.dcache.SoftPFReq.hits::cpu.data       220101                       # number of SoftPFReq hits (Count)
system.cpu.dcache.SoftPFReq.hits::total        220101                       # number of SoftPFReq hits (Count)
system.cpu.dcache.SoftPFReq.misses::cpu.data         1125                       # number of SoftPFReq misses (Count)
system.cpu.dcache.SoftPFReq.misses::total         1125                       # number of SoftPFReq misses (Count)
system.cpu.dcache.SoftPFReq.accesses::cpu.data       221226                       # number of SoftPFReq accesses(hits+misses) (Count)
system.cpu.dcache.SoftPFReq.accesses::total       221226                       # number of SoftPFReq accesses(hits+misses) (Count)
system.cpu.dcache.SoftPFReq.missRate::cpu.data     0.005085                       # miss rate for SoftPFReq accesses (Ratio)
system.cpu.dcache.SoftPFReq.missRate::total     0.005085                       # miss rate for SoftPFReq accesses (Ratio)
system.cpu.dcache.SoftPFReq.mshrMisses::cpu.data          270                       # number of SoftPFReq MSHR misses (Count)
system.cpu.dcache.SoftPFReq.mshrMisses::total          270                       # number of SoftPFReq MSHR misses (Count)
system.cpu.dcache.SoftPFReq.mshrMissLatency::cpu.data      3752060                       # number of SoftPFReq MSHR miss ticks (Tick)
system.cpu.dcache.SoftPFReq.mshrMissLatency::total      3752060                       # number of SoftPFReq MSHR miss ticks (Tick)
system.cpu.dcache.SoftPFReq.mshrMissRate::cpu.data     0.001220                       # mshr miss rate for SoftPFReq accesses (Ratio)
system.cpu.dcache.SoftPFReq.mshrMissRate::total     0.001220                       # mshr miss rate for SoftPFReq accesses (Ratio)
system.cpu.dcache.SoftPFReq.avgMshrMissLatency::cpu.data 13896.518519                       # average SoftPFReq mshr miss latency ((Tick/Count))
system.cpu.dcache.SoftPFReq.avgMshrMissLatency::total 13896.518519                       # average SoftPFReq mshr miss latency ((Tick/Count))
system.cpu.dcache.StoreCondReq.hits::cpu.data      1263005                       # number of StoreCondReq hits (Count)
system.cpu.dcache.StoreCondReq.hits::total      1263005                       # number of StoreCondReq hits (Count)
system.cpu.dcache.StoreCondReq.accesses::cpu.data      1263005                       # number of StoreCondReq accesses(hits+misses) (Count)
system.cpu.dcache.StoreCondReq.accesses::total      1263005                       # number of StoreCondReq accesses(hits+misses) (Count)
system.cpu.dcache.WriteReq.hits::cpu.data    107822678                       # number of WriteReq hits (Count)
system.cpu.dcache.WriteReq.hits::total      107822678                       # number of WriteReq hits (Count)
system.cpu.dcache.WriteReq.misses::cpu.data      2536357                       # number of WriteReq misses (Count)
system.cpu.dcache.WriteReq.misses::total      2536357                       # number of WriteReq misses (Count)
system.cpu.dcache.WriteReq.missLatency::cpu.data 105668654124                       # number of WriteReq miss ticks (Tick)
system.cpu.dcache.WriteReq.missLatency::total 105668654124                       # number of WriteReq miss ticks (Tick)
system.cpu.dcache.WriteReq.accesses::cpu.data    110359035                       # number of WriteReq accesses(hits+misses) (Count)
system.cpu.dcache.WriteReq.accesses::total    110359035                       # number of WriteReq accesses(hits+misses) (Count)
system.cpu.dcache.WriteReq.missRate::cpu.data     0.022983                       # miss rate for WriteReq accesses (Ratio)
system.cpu.dcache.WriteReq.missRate::total     0.022983                       # miss rate for WriteReq accesses (Ratio)
system.cpu.dcache.WriteReq.avgMissLatency::cpu.data 41661.585543                       # average WriteReq miss latency ((Tick/Count))
system.cpu.dcache.WriteReq.avgMissLatency::total 41661.585543                       # average WriteReq miss latency ((Tick/Count))
system.cpu.dcache.WriteReq.mshrHits::cpu.data      1746121                       # number of WriteReq MSHR hits (Count)
system.cpu.dcache.WriteReq.mshrHits::total      1746121                       # number of WriteReq MSHR hits (Count)
system.cpu.dcache.WriteReq.mshrMisses::cpu.data       790236                       # number of WriteReq MSHR misses (Count)
system.cpu.dcache.WriteReq.mshrMisses::total       790236                       # number of WriteReq MSHR misses (Count)
system.cpu.dcache.WriteReq.mshrMissLatency::cpu.data  33977724755                       # number of WriteReq MSHR miss ticks (Tick)
system.cpu.dcache.WriteReq.mshrMissLatency::total  33977724755                       # number of WriteReq MSHR miss ticks (Tick)
system.cpu.dcache.WriteReq.mshrMissRate::cpu.data     0.007161                       # mshr miss rate for WriteReq accesses (Ratio)
system.cpu.dcache.WriteReq.mshrMissRate::total     0.007161                       # mshr miss rate for WriteReq accesses (Ratio)
system.cpu.dcache.WriteReq.avgMshrMissLatency::cpu.data 42996.933517                       # average WriteReq mshr miss latency ((Tick/Count))
system.cpu.dcache.WriteReq.avgMshrMissLatency::total 42996.933517                       # average WriteReq mshr miss latency ((Tick/Count))
system.cpu.dcache.power_state.pwrStateResidencyTicks::UNDEFINED 1044325097680                       # Cumulative time (in ticks) in various power states (Tick)
system.cpu.dcache.tags.tagsInUse           511.980559                       # Average ticks per tags in use ((Tick/Count))
system.cpu.dcache.tags.totalRefs            365184871                       # Total number of references to valid blocks. (Count)
system.cpu.dcache.tags.sampledRefs           32547612                       # Sample count of references to valid blocks. (Count)
system.cpu.dcache.tags.avgRefs              11.220020                       # Average number of references to valid blocks. ((Count/Count))
system.cpu.dcache.tags.warmupTick               98500                       # The tick when the warmup percentage was hit. (Tick)
system.cpu.dcache.tags.occupancies::cpu.data   511.980559                       # Average occupied blocks per tick, per requestor ((Count/Tick))
system.cpu.dcache.tags.avgOccs::cpu.data     0.999962                       # Average percentage of cache occupancy ((Ratio/Tick))
system.cpu.dcache.tags.avgOccs::total        0.999962                       # Average percentage of cache occupancy ((Ratio/Tick))
system.cpu.dcache.tags.occupanciesTaskId::1024          512                       # Occupied blocks per task id (Count)
system.cpu.dcache.tags.ageTaskId_1024::0          149                       # Occupied blocks per task id, per block age (Count)
system.cpu.dcache.tags.ageTaskId_1024::1          362                       # Occupied blocks per task id, per block age (Count)
system.cpu.dcache.tags.ageTaskId_1024::3            1                       # Occupied blocks per task id, per block age (Count)
system.cpu.dcache.tags.ratioOccsTaskId::1024            1                       # Ratio of occupied blocks and all blocks, per task id (Ratio)
system.cpu.dcache.tags.tagAccesses         1640908384                       # Number of tag accesses (Count)
system.cpu.dcache.tags.dataAccesses        1640908384                       # Number of data accesses (Count)
system.cpu.dcache.tags.power_state.pwrStateResidencyTicks::UNDEFINED 1044325097680                       # Cumulative time (in ticks) in various power states (Tick)
system.cpu.decode.idleCycles                139082441                       # Number of cycles decode is idle (Cycle)
system.cpu.decode.blockedCycles            2424320777                       # Number of cycles decode is blocked (Cycle)
system.cpu.decode.runCycles                 207341043                       # Number of cycles decode is running (Cycle)
system.cpu.decode.unblockCycles              42497882                       # Number of cycles decode is unblocking (Cycle)
system.cpu.decode.squashCycles                9204981                       # Number of cycles decode is squashing (Cycle)
system.cpu.decode.branchResolved            140060223                       # Number of times decode resolved a branch (Count)
system.cpu.decode.branchMispred               2063856                       # Number of times decode detected a branch misprediction (Count)
system.cpu.decode.decodedInsts             1518467884                       # Number of instructions handled by decode (Count)
system.cpu.decode.squashedInsts               3619470                       # Number of squashed instructions handled by decode (Count)
system.cpu.fetch.icacheStallCycles          188698288                       # Number of cycles fetch is stalled on an Icache miss (Cycle)
system.cpu.fetch.insts                     1535727104                       # Number of instructions fetch has processed (Count)
system.cpu.fetch.branches                   353841523                       # Number of branches that fetch encountered (Count)
system.cpu.fetch.predictedBranches          160880381                       # Number of branches that fetch has predicted taken (Count)
system.cpu.fetch.cycles                    2622484074                       # Number of cycles fetch has run and was not squashing or blocked (Cycle)
system.cpu.fetch.squashCycles                22529260                       # Number of cycles fetch has spent squashing (Cycle)
system.cpu.fetch.miscStallCycles                   37                       # Number of cycles fetch has spent waiting on interrupts, or bad addresses, or out of MSHRs (Cycle)
system.cpu.fetch.pendingTrapStallCycles            37                       # Number of stall cycles due to pending traps (Cycle)
system.cpu.fetch.icacheWaitRetryStallCycles           58                       # Number of stall cycles due to full MSHR (Cycle)
system.cpu.fetch.cacheLines                 183159310                       # Number of cache lines fetched (Count)
system.cpu.fetch.icacheSquashes               3309102                       # Number of outstanding Icache misses that were squashed (Count)
system.cpu.fetch.nisnDist::samples         2822447124                       # Number of instructions fetched each cycle (Total) (Count)
system.cpu.fetch.nisnDist::mean              0.585502                       # Number of instructions fetched each cycle (Total) (Count)
system.cpu.fetch.nisnDist::stdev             1.840837                       # Number of instructions fetched each cycle (Total) (Count)
system.cpu.fetch.nisnDist::underflows               0      0.00%      0.00% # Number of instructions fetched each cycle (Total) (Count)
system.cpu.fetch.nisnDist::0               2503756717     88.71%     88.71% # Number of instructions fetched each cycle (Total) (Count)
system.cpu.fetch.nisnDist::1                 18964265      0.67%     89.38% # Number of instructions fetched each cycle (Total) (Count)
system.cpu.fetch.nisnDist::2                 47441206      1.68%     91.06% # Number of instructions fetched each cycle (Total) (Count)
system.cpu.fetch.nisnDist::3                 40009497      1.42%     92.48% # Number of instructions fetched each cycle (Total) (Count)
system.cpu.fetch.nisnDist::4                 29663956      1.05%     93.53% # Number of instructions fetched each cycle (Total) (Count)
system.cpu.fetch.nisnDist::5                 22629699      0.80%     94.33% # Number of instructions fetched each cycle (Total) (Count)
system.cpu.fetch.nisnDist::6                 39358038      1.39%     95.73% # Number of instructions fetched each cycle (Total) (Count)
system.cpu.fetch.nisnDist::7                 14270144      0.51%     96.23% # Number of instructions fetched each cycle (Total) (Count)
system.cpu.fetch.nisnDist::8                106353602      3.77%    100.00% # Number of instructions fetched each cycle (Total) (Count)
system.cpu.fetch.nisnDist::overflows                0      0.00%    100.00% # Number of instructions fetched each cycle (Total) (Count)
system.cpu.fetch.nisnDist::min_value                0                       # Number of instructions fetched each cycle (Total) (Count)
system.cpu.fetch.nisnDist::max_value                8                       # Number of instructions fetched each cycle (Total) (Count)
system.cpu.fetch.nisnDist::total           2822447124                       # Number of instructions fetched each cycle (Total) (Count)
system.cpu.fetch.branchRate                  0.125365                       # Number of branch fetches per cycle (Ratio)
system.cpu.fetch.rate                        0.544102                       # Number of inst fetches per cycle ((Count/Cycle))
system.cpu.icache.demandHits::cpu.inst      183158566                       # number of demand (read+write) hits (Count)
system.cpu.icache.demandHits::total         183158566                       # number of demand (read+write) hits (Count)
system.cpu.icache.overallHits::cpu.inst     183158566                       # number of overall hits (Count)
system.cpu.icache.overallHits::total        183158566                       # number of overall hits (Count)
system.cpu.icache.demandMisses::cpu.inst          743                       # number of demand (read+write) misses (Count)
system.cpu.icache.demandMisses::total             743                       # number of demand (read+write) misses (Count)
system.cpu.icache.overallMisses::cpu.inst          743                       # number of overall misses (Count)
system.cpu.icache.overallMisses::total            743                       # number of overall misses (Count)
system.cpu.icache.demandMissLatency::cpu.inst     50451119                       # number of demand (read+write) miss ticks (Tick)
system.cpu.icache.demandMissLatency::total     50451119                       # number of demand (read+write) miss ticks (Tick)
system.cpu.icache.overallMissLatency::cpu.inst     50451119                       # number of overall miss ticks (Tick)
system.cpu.icache.overallMissLatency::total     50451119                       # number of overall miss ticks (Tick)
system.cpu.icache.demandAccesses::cpu.inst    183159309                       # number of demand (read+write) accesses (Count)
system.cpu.icache.demandAccesses::total     183159309                       # number of demand (read+write) accesses (Count)
system.cpu.icache.overallAccesses::cpu.inst    183159309                       # number of overall (read+write) accesses (Count)
system.cpu.icache.overallAccesses::total    183159309                       # number of overall (read+write) accesses (Count)
system.cpu.icache.demandMissRate::cpu.inst     0.000004                       # miss rate for demand accesses (Ratio)
system.cpu.icache.demandMissRate::total      0.000004                       # miss rate for demand accesses (Ratio)
system.cpu.icache.overallMissRate::cpu.inst     0.000004                       # miss rate for overall accesses (Ratio)
system.cpu.icache.overallMissRate::total     0.000004                       # miss rate for overall accesses (Ratio)
system.cpu.icache.demandAvgMissLatency::cpu.inst 67901.909825                       # average overall miss latency in ticks ((Tick/Count))
system.cpu.icache.demandAvgMissLatency::total 67901.909825                       # average overall miss latency in ticks ((Tick/Count))
system.cpu.icache.overallAvgMissLatency::cpu.inst 67901.909825                       # average overall miss latency ((Tick/Count))
system.cpu.icache.overallAvgMissLatency::total 67901.909825                       # average overall miss latency ((Tick/Count))
system.cpu.icache.blockedCycles::no_mshrs         1264                       # number of cycles access was blocked (Cycle)
system.cpu.icache.blockedCycles::no_targets            0                       # number of cycles access was blocked (Cycle)
system.cpu.icache.blockedCauses::no_mshrs           15                       # number of times access was blocked (Count)
system.cpu.icache.blockedCauses::no_targets            0                       # number of times access was blocked (Count)
system.cpu.icache.avgBlocked::no_mshrs      84.266667                       # average number of cycles each access was blocked ((Cycle/Count))
system.cpu.icache.avgBlocked::no_targets          nan                       # average number of cycles each access was blocked ((Cycle/Count))
system.cpu.icache.demandMshrHits::cpu.inst          175                       # number of demand (read+write) MSHR hits (Count)
system.cpu.icache.demandMshrHits::total           175                       # number of demand (read+write) MSHR hits (Count)
system.cpu.icache.overallMshrHits::cpu.inst          175                       # number of overall MSHR hits (Count)
system.cpu.icache.overallMshrHits::total          175                       # number of overall MSHR hits (Count)
system.cpu.icache.demandMshrMisses::cpu.inst          568                       # number of demand (read+write) MSHR misses (Count)
system.cpu.icache.demandMshrMisses::total          568                       # number of demand (read+write) MSHR misses (Count)
system.cpu.icache.overallMshrMisses::cpu.inst          568                       # number of overall MSHR misses (Count)
system.cpu.icache.overallMshrMisses::total          568                       # number of overall MSHR misses (Count)
system.cpu.icache.demandMshrMissLatency::cpu.inst     39804439                       # number of demand (read+write) MSHR miss ticks (Tick)
system.cpu.icache.demandMshrMissLatency::total     39804439                       # number of demand (read+write) MSHR miss ticks (Tick)
system.cpu.icache.overallMshrMissLatency::cpu.inst     39804439                       # number of overall MSHR miss ticks (Tick)
system.cpu.icache.overallMshrMissLatency::total     39804439                       # number of overall MSHR miss ticks (Tick)
system.cpu.icache.demandMshrMissRate::cpu.inst     0.000003                       # mshr miss ratio for demand accesses (Ratio)
system.cpu.icache.demandMshrMissRate::total     0.000003                       # mshr miss ratio for demand accesses (Ratio)
system.cpu.icache.overallMshrMissRate::cpu.inst     0.000003                       # mshr miss ratio for overall accesses (Ratio)
system.cpu.icache.overallMshrMissRate::total     0.000003                       # mshr miss ratio for overall accesses (Ratio)
system.cpu.icache.demandAvgMshrMissLatency::cpu.inst 70078.237676                       # average overall mshr miss latency ((Tick/Count))
system.cpu.icache.demandAvgMshrMissLatency::total 70078.237676                       # average overall mshr miss latency ((Tick/Count))
system.cpu.icache.overallAvgMshrMissLatency::cpu.inst 70078.237676                       # average overall mshr miss latency ((Tick/Count))
system.cpu.icache.overallAvgMshrMissLatency::total 70078.237676                       # average overall mshr miss latency ((Tick/Count))
system.cpu.icache.replacements                    122                       # number of replacements (Count)
system.cpu.icache.ReadReq.hits::cpu.inst    183158566                       # number of ReadReq hits (Count)
system.cpu.icache.ReadReq.hits::total       183158566                       # number of ReadReq hits (Count)
system.cpu.icache.ReadReq.misses::cpu.inst          743                       # number of ReadReq misses (Count)
system.cpu.icache.ReadReq.misses::total           743                       # number of ReadReq misses (Count)
system.cpu.icache.ReadReq.missLatency::cpu.inst     50451119                       # number of ReadReq miss ticks (Tick)
system.cpu.icache.ReadReq.missLatency::total     50451119                       # number of ReadReq miss ticks (Tick)
system.cpu.icache.ReadReq.accesses::cpu.inst    183159309                       # number of ReadReq accesses(hits+misses) (Count)
system.cpu.icache.ReadReq.accesses::total    183159309                       # number of ReadReq accesses(hits+misses) (Count)
system.cpu.icache.ReadReq.missRate::cpu.inst     0.000004                       # miss rate for ReadReq accesses (Ratio)
system.cpu.icache.ReadReq.missRate::total     0.000004                       # miss rate for ReadReq accesses (Ratio)
system.cpu.icache.ReadReq.avgMissLatency::cpu.inst 67901.909825                       # average ReadReq miss latency ((Tick/Count))
system.cpu.icache.ReadReq.avgMissLatency::total 67901.909825                       # average ReadReq miss latency ((Tick/Count))
system.cpu.icache.ReadReq.mshrHits::cpu.inst          175                       # number of ReadReq MSHR hits (Count)
system.cpu.icache.ReadReq.mshrHits::total          175                       # number of ReadReq MSHR hits (Count)
system.cpu.icache.ReadReq.mshrMisses::cpu.inst          568                       # number of ReadReq MSHR misses (Count)
system.cpu.icache.ReadReq.mshrMisses::total          568                       # number of ReadReq MSHR misses (Count)
system.cpu.icache.ReadReq.mshrMissLatency::cpu.inst     39804439                       # number of ReadReq MSHR miss ticks (Tick)
system.cpu.icache.ReadReq.mshrMissLatency::total     39804439                       # number of ReadReq MSHR miss ticks (Tick)
system.cpu.icache.ReadReq.mshrMissRate::cpu.inst     0.000003                       # mshr miss rate for ReadReq accesses (Ratio)
system.cpu.icache.ReadReq.mshrMissRate::total     0.000003                       # mshr miss rate for ReadReq accesses (Ratio)
system.cpu.icache.ReadReq.avgMshrMissLatency::cpu.inst 70078.237676                       # average ReadReq mshr miss latency ((Tick/Count))
system.cpu.icache.ReadReq.avgMshrMissLatency::total 70078.237676                       # average ReadReq mshr miss latency ((Tick/Count))
system.cpu.icache.power_state.pwrStateResidencyTicks::UNDEFINED 1044325097680                       # Cumulative time (in ticks) in various power states (Tick)
system.cpu.icache.tags.tagsInUse           428.030664                       # Average ticks per tags in use ((Tick/Count))
system.cpu.icache.tags.totalRefs            183159134                       # Total number of references to valid blocks. (Count)
system.cpu.icache.tags.sampledRefs                568                       # Sample count of references to valid blocks. (Count)
system.cpu.icache.tags.avgRefs           322463.264085                       # Average number of references to valid blocks. ((Count/Count))
system.cpu.icache.tags.warmupTick               82000                       # The tick when the warmup percentage was hit. (Tick)
system.cpu.icache.tags.occupancies::cpu.inst   428.030664                       # Average occupied blocks per tick, per requestor ((Count/Tick))
system.cpu.icache.tags.avgOccs::cpu.inst     0.835997                       # Average percentage of cache occupancy ((Ratio/Tick))
system.cpu.icache.tags.avgOccs::total        0.835997                       # Average percentage of cache occupancy ((Ratio/Tick))
system.cpu.icache.tags.occupanciesTaskId::1024          436                       # Occupied blocks per task id (Count)
system.cpu.icache.tags.ageTaskId_1024::4          436                       # Occupied blocks per task id, per block age (Count)
system.cpu.icache.tags.ratioOccsTaskId::1024     0.851562                       # Ratio of occupied blocks and all blocks, per task id (Ratio)
system.cpu.icache.tags.tagAccesses          732637804                       # Number of tag accesses (Count)
system.cpu.icache.tags.dataAccesses         732637804                       # Number of data accesses (Count)
system.cpu.icache.tags.power_state.pwrStateResidencyTicks::UNDEFINED 1044325097680                       # Cumulative time (in ticks) in various power states (Tick)
system.cpu.iew.idleCycles                           0                       # Number of cycles IEW is idle (Cycle)
system.cpu.iew.squashCycles                   9204981                       # Number of cycles IEW is squashing (Cycle)
system.cpu.iew.blockCycles                 1865672908                       # Number of cycles IEW is blocking (Cycle)
system.cpu.iew.unblockCycles                142649759                       # Number of cycles IEW is unblocking (Cycle)
system.cpu.iew.dispatchedInsts             1423393246                       # Number of instructions dispatched to IQ (Count)
system.cpu.iew.dispSquashedInsts              3176011                       # Number of squashed instructions skipped by dispatch (Count)
system.cpu.iew.dispLoadInsts                346714373                       # Number of dispatched load instructions (Count)
system.cpu.iew.dispStoreInsts               143619785                       # Number of dispatched store instructions (Count)
system.cpu.iew.dispNonSpecInsts               1270277                       # Number of dispatched non-speculative instructions (Count)
system.cpu.iew.iqFullEvents                   6549283                       # Number of times the IQ has become full, causing a stall (Count)
system.cpu.iew.lsqFullEvents                128261925                       # Number of times the LSQ has become full, causing a stall (Count)
system.cpu.iew.memOrderViolationEvents         869308                       # Number of memory order violations (Count)
system.cpu.iew.predictedTakenIncorrect        4334267                       # Number of branches that were predicted taken incorrectly (Count)
system.cpu.iew.predictedNotTakenIncorrect      5096039                       # Number of branches that were predicted not taken incorrectly (Count)
system.cpu.iew.branchMispredicts              9430306                       # Number of branch mispredicts detected at execute (Count)
system.cpu.iew.instsToCommit               1244607318                       # Cumulative count of insts sent to commit (Count)
system.cpu.iew.writebackCount              1240037187                       # Cumulative count of insts written-back (Count)
system.cpu.iew.producerInst                 684484589                       # Number of instructions producing a value (Count)
system.cpu.iew.consumerInst                1207310951                       # Number of instructions consuming a value (Count)
system.cpu.iew.wbRate                        0.439340                       # Insts written-back per cycle ((Count/Cycle))
system.cpu.iew.wbFanout                      0.566950                       # Average fanout of values written-back ((Count/Count))
system.cpu.lsq0.forwLoads                    13382076                       # Number of loads that had data forwarded from stores (Count)
system.cpu.lsq0.squashedLoads                89481508                       # Number of loads squashed (Count)
system.cpu.lsq0.ignoredResponses               256907                       # Number of memory responses ignored because the instruction is squashed (Count)
system.cpu.lsq0.memOrderViolation              869308                       # Number of memory ordering violations (Count)
system.cpu.lsq0.squashedStores               29258361                       # Number of stores squashed (Count)
system.cpu.lsq0.rescheduledLoads              5090678                       # Number of loads that were rescheduled (Count)
system.cpu.lsq0.blockedByCache               16154704                       # Number of times an access to memory failed due to the cache being blocked (Count)
system.cpu.lsq0.loadToUse::samples          257022175                       # Distribution of cycle latency between the first time a load is issued and its completion (Unspecified)
system.cpu.lsq0.loadToUse::mean             34.976771                       # Distribution of cycle latency between the first time a load is issued and its completion (Unspecified)
system.cpu.lsq0.loadToUse::stdev            89.629281                       # Distribution of cycle latency between the first time a load is issued and its completion (Unspecified)
system.cpu.lsq0.loadToUse::0-9              198450775     77.21%     77.21% # Distribution of cycle latency between the first time a load is issued and its completion (Unspecified)
system.cpu.lsq0.loadToUse::10-19              3430665      1.33%     78.55% # Distribution of cycle latency between the first time a load is issued and its completion (Unspecified)
system.cpu.lsq0.loadToUse::20-29              1687260      0.66%     79.20% # Distribution of cycle latency between the first time a load is issued and its completion (Unspecified)
system.cpu.lsq0.loadToUse::30-39              9618825      3.74%     82.95% # Distribution of cycle latency between the first time a load is issued and its completion (Unspecified)
system.cpu.lsq0.loadToUse::40-49              8254295      3.21%     86.16% # Distribution of cycle latency between the first time a load is issued and its completion (Unspecified)
system.cpu.lsq0.loadToUse::50-59              1342494      0.52%     86.68% # Distribution of cycle latency between the first time a load is issued and its completion (Unspecified)
[...]
system.mem_ctrl.dram.perBankRdBursts::8        479721                       # Per bank write bursts (Count)
system.mem_ctrl.dram.perBankRdBursts::9        479889                       # Per bank write bursts (Count)
system.mem_ctrl.dram.perBankRdBursts::10       466979                       # Per bank write bursts (Count)
system.mem_ctrl.dram.perBankRdBursts::11       466207                       # Per bank write bursts (Count)
system.mem_ctrl.dram.perBankRdBursts::12       446887                       # Per bank write bursts (Count)
system.mem_ctrl.dram.perBankRdBursts::13       461387                       # Per bank write bursts (Count)
system.mem_ctrl.dram.perBankRdBursts::14       458398                       # Per bank write bursts (Count)
system.mem_ctrl.dram.perBankRdBursts::15       459815                       # Per bank write bursts (Count)
system.mem_ctrl.dram.perBankRdBursts::16       446020                       # Per bank write bursts (Count)
system.mem_ctrl.dram.perBankRdBursts::17       461317                       # Per bank write bursts (Count)
system.mem_ctrl.dram.perBankRdBursts::18       430876                       # Per bank write bursts (Count)
system.mem_ctrl.dram.perBankRdBursts::19       447303                       # Per bank write bursts (Count)
system.mem_ctrl.dram.perBankRdBursts::20       439008                       # Per bank write bursts (Count)
system.mem_ctrl.dram.perBankRdBursts::21       456681                       # Per bank write bursts (Count)
system.mem_ctrl.dram.perBankRdBursts::22       448549                       # Per bank write bursts (Count)
system.mem_ctrl.dram.perBankRdBursts::23       465651                       # Per bank write bursts (Count)
system.mem_ctrl.dram.perBankRdBursts::24       474076                       # Per bank write bursts (Count)
system.mem_ctrl.dram.perBankRdBursts::25       464711                       # Per bank write bursts (Count)
system.mem_ctrl.dram.perBankRdBursts::26       462116                       # Per bank write bursts (Count)
system.mem_ctrl.dram.perBankRdBursts::27       470803                       # Per bank write bursts (Count)
system.mem_ctrl.dram.perBankRdBursts::28       468441                       # Per bank write bursts (Count)
system.mem_ctrl.dram.perBankRdBursts::29       469971                       # Per bank write bursts (Count)
system.mem_ctrl.dram.perBankRdBursts::30       482567                       # Per bank write bursts (Count)
system.mem_ctrl.dram.perBankRdBursts::31       466583                       # Per bank write bursts (Count)
system.mem_ctrl.dram.perBankWrBursts::0        179804                       # Per bank write bursts (Count)
system.mem_ctrl.dram.perBankWrBursts::1        172912                       # Per bank write bursts (Count)
system.mem_ctrl.dram.perBankWrBursts::2        180281                       # Per bank write bursts (Count)
system.mem_ctrl.dram.perBankWrBursts::3        172749                       # Per bank write bursts (Count)
system.mem_ctrl.dram.perBankWrBursts::4        178768                       # Per bank write bursts (Count)
system.mem_ctrl.dram.perBankWrBursts::5        172122                       # Per bank write bursts (Count)
system.mem_ctrl.dram.perBankWrBursts::6        180187                       # Per bank write bursts (Count)
system.mem_ctrl.dram.perBankWrBursts::7        171607                       # Per bank write bursts (Count)
system.mem_ctrl.dram.perBankWrBursts::8        179844                       # Per bank write bursts (Count)
system.mem_ctrl.dram.perBankWrBursts::9        179989                       # Per bank write bursts (Count)
system.mem_ctrl.dram.perBankWrBursts::10       172399                       # Per bank write bursts (Count)
system.mem_ctrl.dram.perBankWrBursts::11       179248                       # Per bank write bursts (Count)
system.mem_ctrl.dram.perBankWrBursts::12       171850                       # Per bank write bursts (Count)
system.mem_ctrl.dram.perBankWrBursts::13       179153                       # Per bank write bursts (Count)
system.mem_ctrl.dram.perBankWrBursts::14       176986                       # Per bank write bursts (Count)
system.mem_ctrl.dram.perBankWrBursts::15       179167                       # Per bank write bursts (Count)
system.mem_ctrl.dram.perBankWrBursts::16       172887                       # Per bank write bursts (Count)
system.mem_ctrl.dram.perBankWrBursts::17       178991                       # Per bank write bursts (Count)
system.mem_ctrl.dram.perBankWrBursts::18       163603                       # Per bank write bursts (Count)
system.mem_ctrl.dram.perBankWrBursts::19       178714                       # Per bank write bursts (Count)
system.mem_ctrl.dram.perBankWrBursts::20       163678                       # Per bank write bursts (Count)
system.mem_ctrl.dram.perBankWrBursts::21       180880                       # Per bank write bursts (Count)
system.mem_ctrl.dram.perBankWrBursts::22       172693                       # Per bank write bursts (Count)
system.mem_ctrl.dram.perBankWrBursts::23       179470                       # Per bank write bursts (Count)
system.mem_ctrl.dram.perBankWrBursts::24       172785                       # Per bank write bursts (Count)
system.mem_ctrl.dram.perBankWrBursts::25       179917                       # Per bank write bursts (Count)
system.mem_ctrl.dram.perBankWrBursts::26       172667                       # Per bank write bursts (Count)
system.mem_ctrl.dram.perBankWrBursts::27       180218                       # Per bank write bursts (Count)
system.mem_ctrl.dram.perBankWrBursts::28       179889                       # Per bank write bursts (Count)
system.mem_ctrl.dram.perBankWrBursts::29       172478                       # Per bank write bursts (Count)
system.mem_ctrl.dram.perBankWrBursts::30       179440                       # Per bank write bursts (Count)
system.mem_ctrl.dram.perBankWrBursts::31       172127                       # Per bank write bursts (Count)
system.mem_ctrl.dram.totQLat             294677917148                       # Total ticks spent queuing (Tick)
system.mem_ctrl.dram.totBusLat            49599135740                       # Total ticks spent in databus transfers (Tick)
system.mem_ctrl.dram.totMemAccLat        555058494088                       # Total ticks spent from burst creation until serviced by the DRAM (Tick)
system.mem_ctrl.dram.avgQLat                 19796.05                       # Average queueing delay per DRAM burst ((Tick/Count))
system.mem_ctrl.dram.avgBusLat                3332.00                       # Average bus latency per DRAM burst ((Tick/Count))
system.mem_ctrl.dram.avgMemAccLat            37288.05                       # Average memory access latency per DRAM burst ((Tick/Count))
system.mem_ctrl.dram.readRowHits              7048094                       # Number of row buffer hits during reads (Count)
system.mem_ctrl.dram.writeRowHits             2829393                       # Number of row buffer hits during writes (Count)
system.mem_ctrl.dram.readRowHitRate             47.35                       # Row buffer hit rate for reads (Ratio)
system.mem_ctrl.dram.writeRowHitRate            50.28                       # Row buffer hit rate for writes (Ratio)
system.mem_ctrl.dram.bytesPerActivate::samples     10635705                       # Bytes accessed per row activation (Byte)
system.mem_ctrl.dram.bytesPerActivate::mean   123.437382                       # Bytes accessed per row activation (Byte)
system.mem_ctrl.dram.bytesPerActivate::gmean    85.601759                       # Bytes accessed per row activation (Byte)
system.mem_ctrl.dram.bytesPerActivate::stdev   178.946650                       # Bytes accessed per row activation (Byte)
system.mem_ctrl.dram.bytesPerActivate::0-127      8366368     78.66%     78.66% # Bytes accessed per row activation (Byte)
system.mem_ctrl.dram.bytesPerActivate::128-255      1283063     12.06%     90.73% # Bytes accessed per row activation (Byte)
system.mem_ctrl.dram.bytesPerActivate::256-383       256118      2.41%     93.13% # Bytes accessed per row activation (Byte)
system.mem_ctrl.dram.bytesPerActivate::384-511       186664      1.76%     94.89% # Bytes accessed per row activation (Byte)
system.mem_ctrl.dram.bytesPerActivate::512-639       126387      1.19%     96.08% # Bytes accessed per row activation (Byte)
system.mem_ctrl.dram.bytesPerActivate::640-767        83205      0.78%     96.86% # Bytes accessed per row activation (Byte)
system.mem_ctrl.dram.bytesPerActivate::768-895        62078      0.58%     97.44% # Bytes accessed per row activation (Byte)
system.mem_ctrl.dram.bytesPerActivate::896-1023        48331      0.45%     97.90% # Bytes accessed per row activation (Byte)
system.mem_ctrl.dram.bytesPerActivate::1024-1151       223491      2.10%    100.00% # Bytes accessed per row activation (Byte)
system.mem_ctrl.dram.bytesPerActivate::total     10635705                       # Bytes accessed per row activation (Byte)
system.mem_ctrl.dram.bytesRead              952684480                       # Total bytes read (Byte)
system.mem_ctrl.dram.bytesWritten           360160192                       # Total bytes written (Byte)
system.mem_ctrl.dram.avgRdBW               912.248956                       # Average DRAM read bandwidth in MiBytes/s ((Byte/Second))
system.mem_ctrl.dram.avgWrBW               344.873634                       # Average DRAM write bandwidth in MiBytes/s ((Byte/Second))
system.mem_ctrl.dram.peakBW                  19207.00                       # Theoretical peak bandwidth in MiByte/s ((Byte/Second))
system.mem_ctrl.dram.busUtil                     6.55                       # Data bus utilization in percentage (Ratio)
system.mem_ctrl.dram.busUtilRead                 4.75                       # Data bus utilization in percentage for reads (Ratio)
system.mem_ctrl.dram.busUtilWrite                1.80                       # Data bus utilization in percentage for writes (Ratio)
system.mem_ctrl.dram.pageHitRate                48.15                       # Row buffer hit rate, read and write combined (Ratio)
system.mem_ctrl.dram.power_state.pwrStateResidencyTicks::UNDEFINED 1044325097680                       # Cumulative time (in ticks) in various power states (Tick)
system.mem_ctrl.dram.rank0.actEnergy     16625268511.487246                       # Energy for activate commands per rank (pJ) (Joule)
system.mem_ctrl.dram.rank0.preEnergy     22103056463.510155                       # Energy for precharge commands per rank (pJ) (Joule)
system.mem_ctrl.dram.rank0.readEnergy    31677864359.768185                       # Energy for read commands per rank (pJ) (Joule)
system.mem_ctrl.dram.rank0.writeEnergy   10625516252.736084                       # Energy for write commands per rank (pJ) (Joule)
system.mem_ctrl.dram.rank0.refreshEnergy 185822086513.673035                       # Energy for refresh commands per rank (pJ) (Joule)
system.mem_ctrl.dram.rank0.actBackEnergy 751743220228.583740                       # Energy for active background per rank (pJ) (Joule)
system.mem_ctrl.dram.rank0.preBackEnergy 104124813951.683624                       # Energy for precharge background per rank (pJ) (Joule)
system.mem_ctrl.dram.rank0.actPowerDownEnergy            0                       # Energy for active power-down per rank (pJ) (Joule)
system.mem_ctrl.dram.rank0.prePowerDownEnergy            0                       # Energy for precharge power-down per rank (pJ) (Joule)
system.mem_ctrl.dram.rank0.selfRefreshEnergy            0                       # Energy for self refresh per rank (pJ) (Joule)
system.mem_ctrl.dram.rank0.totalEnergy   1122721826282.162598                       # Total energy per rank (pJ) (Joule)
system.mem_ctrl.dram.rank0.averagePower   1075.069276                       # Core power per rank (mW) (Watt)
system.mem_ctrl.dram.rank0.totalIdleTime            0                       # Total Idle time Per DRAM Rank (Tick)
system.mem_ctrl.dram.rank0.pwrStateTime::IDLE 154523956554                       # Time in different power states (Tick)
system.mem_ctrl.dram.rank0.pwrStateTime::REF  46945850000                       # Time in different power states (Tick)
system.mem_ctrl.dram.rank0.pwrStateTime::SREF            0                       # Time in different power states (Tick)
system.mem_ctrl.dram.rank0.pwrStateTime::PRE_PDN            0                       # Time in different power states (Tick)
system.mem_ctrl.dram.rank0.pwrStateTime::ACT 842855291126                       # Time in different power states (Tick)
system.mem_ctrl.dram.rank0.pwrStateTime::ACT_PDN            0                       # Time in different power states (Tick)
system.mem_ctrl.dram.rank1.actEnergy     16544876441.183079                       # Energy for activate commands per rank (pJ) (Joule)
system.mem_ctrl.dram.rank1.preEnergy     21996201114.753090                       # Energy for precharge commands per rank (pJ) (Joule)
system.mem_ctrl.dram.rank1.readEnergy    30936084598.407261                       # Energy for read commands per rank (pJ) (Joule)
system.mem_ctrl.dram.rank1.writeEnergy   10525431262.752186                       # Energy for write commands per rank (pJ) (Joule)
system.mem_ctrl.dram.rank1.refreshEnergy 185822086513.673035                       # Energy for refresh commands per rank (pJ) (Joule)
system.mem_ctrl.dram.rank1.actBackEnergy 749754192777.919067                       # Energy for active background per rank (pJ) (Joule)
system.mem_ctrl.dram.rank1.preBackEnergy 105653106230.149811                       # Energy for precharge background per rank (pJ) (Joule)
system.mem_ctrl.dram.rank1.actPowerDownEnergy            0                       # Energy for active power-down per rank (pJ) (Joule)
system.mem_ctrl.dram.rank1.prePowerDownEnergy            0                       # Energy for precharge power-down per rank (pJ) (Joule)
system.mem_ctrl.dram.rank1.selfRefreshEnergy            0                       # Energy for self refresh per rank (pJ) (Joule)
system.mem_ctrl.dram.rank1.totalEnergy   1121231978939.574951                       # Total energy per rank (pJ) (Joule)
system.mem_ctrl.dram.rank1.averagePower   1073.642663                       # Core power per rank (mW) (Watt)
system.mem_ctrl.dram.rank1.totalIdleTime            0                       # Total Idle time Per DRAM Rank (Tick)
system.mem_ctrl.dram.rank1.pwrStateTime::IDLE 156976020268                       # Time in different power states (Tick)
system.mem_ctrl.dram.rank1.pwrStateTime::REF  46945850000                       # Time in different power states (Tick)
system.mem_ctrl.dram.rank1.pwrStateTime::SREF            0                       # Time in different power states (Tick)
system.mem_ctrl.dram.rank1.pwrStateTime::PRE_PDN            0                       # Time in different power states (Tick)
system.mem_ctrl.dram.rank1.pwrStateTime::ACT 840403227412                       # Time in different power states (Tick)
system.mem_ctrl.dram.rank1.pwrStateTime::ACT_PDN            0                       # Time in different power states (Tick)
system.mem_ctrl.power_state.pwrStateResidencyTicks::UNDEFINED 1044325097680                       # Cumulative time (in ticks) in various power states (Tick)
system.membus.transDist::ReadResp            14577626                       # Transaction distribution (Count)
system.membus.transDist::WritebackDirty       5627561                       # Transaction distribution (Count)
system.membus.transDist::CleanEvict           9231361                       # Transaction distribution (Count)
system.membus.transDist::UpgradeReq                 7                       # Transaction distribution (Count)
system.membus.transDist::ReadExReq             314800                       # Transaction distribution (Count)
system.membus.transDist::ReadExResp            314800                       # Transaction distribution (Count)
system.membus.transDist::ReadSharedReq       14577626                       # Transaction distribution (Count)
system.membus.pktCount_system.l2cache.mem_side_port::system.mem_ctrl.port     44643781                       # Packet count per connected requestor and responder (Count)
system.membus.pktCount::total                44643781                       # Packet count per connected requestor and responder (Count)
system.membus.pktSize_system.l2cache.mem_side_port::system.mem_ctrl.port   1313279168                       # Cumulative packet size per connected requestor and responder (Byte)
system.membus.pktSize::total               1313279168                       # Cumulative packet size per connected requestor and responder (Byte)
system.membus.snoops                                0                       # Total snoops (Count)
system.membus.snoopTraffic                          0                       # Total snoop traffic (Byte)
system.membus.snoopFanout::samples           14892433                       # Request fanout histogram (Count)
system.membus.snoopFanout::mean                     0                       # Request fanout histogram (Count)
system.membus.snoopFanout::stdev                    0                       # Request fanout histogram (Count)
system.membus.snoopFanout::underflows               0      0.00%      0.00% # Request fanout histogram (Count)
system.membus.snoopFanout::0                 14892433    100.00%    100.00% # Request fanout histogram (Count)
system.membus.snoopFanout::1                        0      0.00%    100.00% # Request fanout histogram (Count)
system.membus.snoopFanout::overflows                0      0.00%    100.00% # Request fanout histogram (Count)
system.membus.snoopFanout::min_value                0                       # Request fanout histogram (Count)
system.membus.snoopFanout::max_value                0                       # Request fanout histogram (Count)
system.membus.snoopFanout::total             14892433                       # Request fanout histogram (Count)
system.membus.power_state.pwrStateResidencyTicks::UNDEFINED 1044325097680                       # Cumulative time (in ticks) in various power states (Tick)
system.membus.reqLayer0.occupancy         28296444660                       # Layer occupancy (ticks) (Tick)
system.membus.reqLayer0.utilization               0.0                       # Layer utilization (Ratio)
system.membus.respLayer0.occupancy        39253851470                       # Layer occupancy (ticks) (Tick)
system.membus.respLayer0.utilization              0.0                       # Layer utilization (Ratio)
system.membus.snoop_filter.totRequests       29751355                       # Total number of requests made to the snoop filter. (Count)
system.membus.snoop_filter.hitSingleRequests     14859231                       # Number of requests hitting in the snoop filter with a single holder of the requested data. (Count)
system.membus.snoop_filter.hitMultiRequests            0                       # Number of requests hitting in the snoop filter with multiple (>1) holders of the requested data. (Count)
system.membus.snoop_filter.totSnoops                0                       # Total number of snoops made to the snoop filter. (Count)
system.membus.snoop_filter.hitSingleSnoops            0                       # Number of snoops hitting in the snoop filter with a single holder of the requested data. (Count)
system.membus.snoop_filter.hitMultiSnoops            0                       # Number of snoops hitting in the snoop filter with multiple (>1) holders of the requested data. (Count)
system.workload.inst.arm                            0                       # number of arm instructions executed (Count)
system.workload.inst.quiesce                        0                       # number of quiesce instructions executed (Count)

---------- End Simulation Statistics   ----------
