
---------- Begin Simulation Statistics ----------
simSeconds                                   1.451958                       # Number of seconds simulated (Second)
simTicks                                 1451958466299                       # Number of ticks simulated (Tick)
finalTick                                1451958466299                       # Number of ticks from beginning of simulation (restored from checkpoints and never reset) (Tick)
simFreq                                  1000000000000                       # The number of ticks per simulated second ((Tick/Second))
hostSeconds                                   4430.93                       # Real time elapsed on the host (Second)
hostTickRate                                327686992                       # The number of ticks simulated per host second (ticks/s) ((Tick/Second))
hostMemory                                    2287744                       # Number of bytes of host memory used (Byte)
simInsts                                   1000000000                       # Number of instructions simulated (Count)
simOps                                     1084388561                       # Number of ops (including micro ops) simulated (Count)
hostInstRate                                   225686                       # Simulator instruction rate (inst/s) ((Count/Second))
hostOpRate                                     244732                       # Simulator op (including micro ops) rate (op/s) ((Count/Second))
system.clk_domain.clock                           500                       # Clock period in ticks (Tick)
system.clk_domain.voltage_domain.voltage            1                       # Voltage in Volts (Volt)
system.cpu.numCycles                       1306893310                       # Number of cpu cycles simulated (Cycle)
system.cpu.numWorkItemsStarted                      0                       # Number of work items this cpu started (Count)
system.cpu.numWorkItemsCompleted                    0                       # Number of work items this cpu completed (Count)
system.cpu.instsAdded                      1406343008                       # Number of instructions added to the IQ (excludes non-spec) (Count)
system.cpu.nonSpecInstsAdded                  3796195                       # Number of non-speculative instructions added to the IQ (Count)
system.cpu.instsIssued                     1362353152                       # Number of instructions issued (Count)
system.cpu.squashedInstsIssued                8361691                       # Number of squashed instructions issued (Count)
system.cpu.squashedInstsExamined            325750576                       # Number of squashed instructions iterated over during squash; mainly for profiling (Count)
system.cpu.squashedOperandsExamined         756974746                       # Number of squashed operands that are examined and possibly removed from graph (Count)
system.cpu.squashedNonSpecRemoved                6755                       # Number of squashed non-spec instructions that were removed (Count)
system.cpu.numIssuedDist::samples          1306880431                       # Number of insts issued each cycle (Count)
system.cpu.numIssuedDist::mean               1.042447                       # Number of insts issued each cycle (Count)
system.cpu.numIssuedDist::stdev              1.798533                       # Number of insts issued each cycle (Count)
system.cpu.numIssuedDist::underflows                0      0.00%      0.00% # Number of insts issued each cycle (Count)
system.cpu.numIssuedDist::0                 851900210     65.19%     65.19% # Number of insts issued each cycle (Count)
system.cpu.numIssuedDist::1                 129142803      9.88%     75.07% # Number of insts issued each cycle (Count)
system.cpu.numIssuedDist::2                  89627113      6.86%     81.93% # Number of insts issued each cycle (Count)
system.cpu.numIssuedDist::3                  72385570      5.54%     87.46% # Number of insts issued each cycle (Count)
system.cpu.numIssuedDist::4                  67101650      5.13%     92.60% # Number of insts issued each cycle (Count)
system.cpu.numIssuedDist::5                  44847138      3.43%     96.03% # Number of insts issued each cycle (Count)
system.cpu.numIssuedDist::6                  28171779      2.16%     98.19% # Number of insts issued each cycle (Count)
system.cpu.numIssuedDist::7                  14506895      1.11%     99.30% # Number of insts issued each cycle (Count)
system.cpu.numIssuedDist::8                   9197273      0.70%    100.00% # Number of insts issued each cycle (Count)
system.cpu.numIssuedDist::overflows                 0      0.00%    100.00% # Number of insts issued each cycle (Count)
system.cpu.numIssuedDist::min_value                 0                       # Number of insts issued each cycle (Count)
system.cpu.numIssuedDist::max_value                 8                       # Number of insts issued each cycle (Count)
system.cpu.numIssuedDist::total            1306880431                       # Number of insts issued each cycle (Count)
system.cpu.statFuBusy::No_OpClass                   0      0.00%      0.00% # attempts to use FU when none available (Count)
system.cpu.statFuBusy::IntAlu                 1037438      2.65%      2.65% # attempts to use FU when none available (Count)
system.cpu.statFuBusy::IntMult                      0      0.00%      2.65% # attempts to use FU when none available (Count)
system.cpu.statFuBusy::IntDiv                       0      0.00%      2.65% # attempts to use FU when none available (Count)
system.cpu.statFuBusy::FloatAdd                     0      0.00%      2.65% # attempts to use FU when none available (Count)
system.cpu.statFuBusy::FloatCmp                     0      0.00%      2.65% # attempts to use FU when none available (Count)
system.cpu.statFuBusy::FloatCvt                     0      0.00%      2.65% # attempts to use FU when none available (Count)
system.cpu.statFuBusy::FloatMult                    0      0.00%      2.65% # attempts to use FU when none available (Count)
system.cpu.statFuBusy::FloatMultAcc                 0      0.00%      2.65% # attempts to use FU when none available (Count)
system.cpu.statFuBusy::FloatDiv                     0      0.00%      2.65% # attempts to use FU when none available (Count)
system.cpu.statFuBusy::FloatMisc                    0      0.00%      2.65% # attempts to use FU when none available (Count)
system.cpu.statFuBusy::FloatSqrt                    0      0.00%      2.65% # attempts to use FU when none available (Count)
system.cpu.statFuBusy::SimdAdd                      0      0.00%      2.65% # attempts to use FU when none available (Count)
system.cpu.statFuBusy::SimdAddAcc                   0      0.00%      2.65% # attempts to use FU when none available (Count)
system.cpu.statFuBusy::SimdAlu                      0      0.00%      2.65% # attempts to use FU when none available (Count)
system.cpu.statFuBusy::SimdCmp                      0      0.00%      2.65% # attempts to use FU when none available (Count)
system.cpu.statFuBusy::SimdCvt                      0      0.00%      2.65% # attempts to use FU when none available (Count)
system.cpu.statFuBusy::SimdMisc                     0      0.00%      2.65% # attempts to use FU when none available (Count)
system.cpu.statFuBusy::SimdMult                     0      0.00%      2.65% # attempts to use FU when none available (Count)
system.cpu.statFuBusy::SimdMultAcc                  0      0.00%      2.65% # attempts to use FU when none available (Count)
system.cpu.statFuBusy::SimdShift                    0      0.00%      2.65% # attempts to use FU when none available (Count)
system.cpu.statFuBusy::SimdShiftAcc                 0      0.00%      2.65% # attempts to use FU when none available (Count)
system.cpu.statFuBusy::SimdDiv                      0      0.00%      2.65% # attempts to use FU when none available (Count)
system.cpu.statFuBusy::SimdSqrt                     0      0.00%      2.65% # attempts to use FU when none available (Count)
system.cpu.statFuBusy::SimdFloatAdd                 0      0.00%      2.65% # attempts to use FU when none available (Count)
system.cpu.statFuBusy::SimdFloatAlu                 0      0.00%      2.65% # attempts to use FU when none available (Count)
system.cpu.statFuBusy::SimdFloatCmp                 0      0.00%      2.65% # attempts to use FU when none available (Count)
system.cpu.statFuBusy::SimdFloatCvt                 0      0.00%      2.65% # attempts to use FU when none available (Count)
system.cpu.statFuBusy::SimdFloatDiv                 0      0.00%      2.65% # attempts to use FU when none available (Count)
system.cpu.statFuBusy::SimdFloatMisc                0      0.00%      2.65% # attempts to use FU when none available (Count)
system.cpu.statFuBusy::SimdFloatMult                0      0.00%      2.65% # attempts to use FU when none available (Count)
system.cpu.statFuBusy::SimdFloatMultAcc             0      0.00%      2.65% # attempts to use FU when none available (Count)
system.cpu.statFuBusy::SimdFloatSqrt                0      0.00%      2.65% # attempts to use FU when none available (Count)
system.cpu.statFuBusy::SimdReduceAdd                0      0.00%      2.65% # attempts to use FU when none available (Count)
system.cpu.statFuBusy::SimdReduceAlu                0      0.00%      2.65% # attempts to use FU when none available (Count)
system.cpu.statFuBusy::SimdReduceCmp                0      0.00%      2.65% # attempts to use FU when none available (Count)
system.cpu.statFuBusy::SimdFloatReduceAdd            0      0.00%      2.65% # attempts to use FU when none available (Count)
system.cpu.statFuBusy::SimdFloatReduceCmp            0      0.00%      2.65% # attempts to use FU when none available (Count)
system.cpu.statFuBusy::SimdAes                      0      0.00%      2.65% # attempts to use FU when none available (Count)
system.cpu.statFuBusy::SimdAesMix                   0      0.00%      2.65% # attempts to use FU when none available (Count)
system.cpu.statFuBusy::SimdSha1Hash                 0      0.00%      2.65% # attempts to use FU when none available (Count)
system.cpu.statFuBusy::SimdSha1Hash2                0      0.00%      2.65% # attempts to use FU when none available (Count)
system.cpu.statFuBusy::SimdSha256Hash               0      0.00%      2.65% # attempts to use FU when none available (Count)
system.cpu.statFuBusy::SimdSha256Hash2              0      0.00%      2.65% # attempts to use FU when none available (Count)
system.cpu.statFuBusy::SimdShaSigma2                0      0.00%      2.65% # attempts to use FU when none available (Count)
system.cpu.statFuBusy::SimdShaSigma3                0      0.00%      2.65% # attempts to use FU when none available (Count)
system.cpu.statFuBusy::SimdPredAlu                  0      0.00%      2.65% # attempts to use FU when none available (Count)
system.cpu.statFuBusy::MemRead               25575681     65.37%     68.03% # attempts to use FU when none available (Count)
system.cpu.statFuBusy::MemWrite              12508387     31.97%    100.00% # attempts to use FU when none available (Count)
system.cpu.statFuBusy::FloatMemRead                 0      0.00%    100.00% # attempts to use FU when none available (Count)
system.cpu.statFuBusy::FloatMemWrite                0      0.00%    100.00% # attempts to use FU when none available (Count)
system.cpu.statFuBusy::IprAccess                    0      0.00%    100.00% # attempts to use FU when none available (Count)
system.cpu.statFuBusy::InstPrefetch                 0      0.00%    100.00% # attempts to use FU when none available (Count)
system.cpu.statIssuedInstType_0::No_OpClass            3      0.00%      0.00% # Number of instructions issued per FU type, per thread (Count)
system.cpu.statIssuedInstType_0::IntAlu     822376476     60.36%     60.36% # Number of instructions issued per FU type, per thread (Count)
system.cpu.statIssuedInstType_0::IntMult      2714573      0.20%     60.56% # Number of instructions issued per FU type, per thread (Count)
system.cpu.statIssuedInstType_0::IntDiv             0      0.00%     60.56% # Number of instructions issued per FU type, per thread (Count)
system.cpu.statIssuedInstType_0::FloatAdd            0      0.00%     60.56% # Number of instructions issued per FU type, per thread (Count)
system.cpu.statIssuedInstType_0::FloatCmp            0      0.00%     60.56% # Number of instructions issued per FU type, per thread (Count)
system.cpu.statIssuedInstType_0::FloatCvt            0      0.00%     60.56% # Number of instructions issued per FU type, per thread (Count)
system.cpu.statIssuedInstType_0::FloatMult            0      0.00%     60.56% # Number of instructions issued per FU type, per thread (Count)
system.cpu.statIssuedInstType_0::FloatMultAcc            0      0.00%     60.56% # Number of instructions issued per FU type, per thread (Count)
system.cpu.statIssuedInstType_0::FloatDiv            0      0.00%     60.56% # Number of instructions issued per FU type, per thread (Count)
system.cpu.statIssuedInstType_0::FloatMisc            0      0.00%     60.56% # Number of instructions issued per FU type, per thread (Count)
system.cpu.statIssuedInstType_0::FloatSqrt            0      0.00%     60.56% # Number of instructions issued per FU type, per thread (Count)
system.cpu.statIssuedInstType_0::SimdAdd            0      0.00%     60.56% # Number of instructions issued per FU type, per thread (Count)
system.cpu.statIssuedInstType_0::SimdAddAcc            0      0.00%     60.56% # Number of instructions issued per FU type, per thread (Count)
system.cpu.statIssuedInstType_0::SimdAlu            0      0.00%     60.56% # Number of instructions issued per FU type, per thread (Count)
system.cpu.statIssuedInstType_0::SimdCmp            0      0.00%     60.56% # Number of instructions issued per FU type, per thread (Count)
system.cpu.statIssuedInstType_0::SimdCvt            0      0.00%     60.56% # Number of instructions issued per FU type, per thread (Count)
system.cpu.statIssuedInstType_0::SimdMisc            0      0.00%     60.56% # Number of instructions issued per FU type, per thread (Count)
system.cpu.statIssuedInstType_0::SimdMult            0      0.00%     60.56% # Number of instructions issued per FU type, per thread (Count)
system.cpu.statIssuedInstType_0::SimdMultAcc            0      0.00%     60.56% # Number of instructions issued per FU type, per thread (Count)
system.cpu.statIssuedInstType_0::SimdShift            0      0.00%     60.56% # Number of instructions issued per FU type, per thread (Count)
system.cpu.statIssuedInstType_0::SimdShiftAcc            0      0.00%     60.56% # Number of instructions issued per FU type, per thread (Count)
system.cpu.statIssuedInstType_0::SimdDiv            0      0.00%     60.56% # Number of instructions issued per FU type, per thread (Count)
system.cpu.statIssuedInstType_0::SimdSqrt            0      0.00%     60.56% # Number of instructions issued per FU type, per thread (Count)
system.cpu.statIssuedInstType_0::SimdFloatAdd            0      0.00%     60.56% # Number of instructions issued per FU type, per thread (Count)
system.cpu.statIssuedInstType_0::SimdFloatAlu            0      0.00%     60.56% # Number of instructions issued per FU type, per thread (Count)
system.cpu.statIssuedInstType_0::SimdFloatCmp            0      0.00%     60.56% # Number of instructions issued per FU type, per thread (Count)
system.cpu.statIssuedInstType_0::SimdFloatCvt            0      0.00%     60.56% # Number of instructions issued per FU type, per thread (Count)
system.cpu.statIssuedInstType_0::SimdFloatDiv            0      0.00%     60.56% # Number of instructions issued per FU type, per thread (Count)
system.cpu.statIssuedInstType_0::SimdFloatMisc            3      0.00%     60.56% # Number of instructions issued per FU type, per thread (Count)
system.cpu.statIssuedInstType_0::SimdFloatMult            0      0.00%     60.56% # Number of instructions issued per FU type, per thread (Count)
system.cpu.statIssuedInstType_0::SimdFloatMultAcc            0      0.00%     60.56% # Number of instructions issued per FU type, per thread (Count)
system.cpu.statIssuedInstType_0::SimdFloatSqrt            0      0.00%     60.56% # Number of instructions issued per FU type, per thread (Count)
system.cpu.statIssuedInstType_0::SimdReduceAdd            0      0.00%     60.56% # Number of instructions issued per FU type, per thread (Count)
system.cpu.statIssuedInstType_0::SimdReduceAlu            0      0.00%     60.56% # Number of instructions issued per FU type, per thread (Count)
system.cpu.statIssuedInstType_0::SimdReduceCmp            0      0.00%     60.56% # Number of instructions issued per FU type, per thread (Count)
system.cpu.statIssuedInstType_0::SimdFloatReduceAdd            0      0.00%     60.56% # Number of instructions issued per FU type, per thread (Count)
system.cpu.statIssuedInstType_0::SimdFloatReduceCmp            0      0.00%     60.56% # Number of instructions issued per FU type, per thread (Count)
system.cpu.statIssuedInstType_0::SimdAes            0      0.00%     60.56% # Number of instructions issued per FU type, per thread (Count)
system.cpu.statIssuedInstType_0::SimdAesMix            0      0.00%     60.56% # Number of instructions issued per FU type, per thread (Count)
system.cpu.statIssuedInstType_0::SimdSha1Hash            0      0.00%     60.56% # Number of instructions issued per FU type, per thread (Count)
system.cpu.statIssuedInstType_0::SimdSha1Hash2            0      0.00%     60.56% # Number of instructions issued per FU type, per thread (Count)
system.cpu.statIssuedInstType_0::SimdSha256Hash            0      0.00%     60.56% # Number of instructions issued per FU type, per thread (Count)
system.cpu.statIssuedInstType_0::SimdSha256Hash2            0      0.00%     60.56% # Number of instructions issued per FU type, per thread (Count)
system.cpu.statIssuedInstType_0::SimdShaSigma2            0      0.00%     60.56% # Number of instructions issued per FU type, per thread (Count)
system.cpu.statIssuedInstType_0::SimdShaSigma3            0      0.00%     60.56% # Number of instructions issued per FU type, per thread (Count)
system.cpu.statIssuedInstType_0::SimdPredAlu            0      0.00%     60.56% # Number of instructions issued per FU type, per thread (Count)
system.cpu.statIssuedInstType_0::MemRead    405980353     29.80%     90.36% # Number of instructions issued per FU type, per thread (Count)
system.cpu.statIssuedInstType_0::MemWrite    131281744      9.64%    100.00% # Number of instructions issued per FU type, per thread (Count)
system.cpu.statIssuedInstType_0::FloatMemRead            0      0.00%    100.00% # Number of instructions issued per FU type, per thread (Count)
system.cpu.statIssuedInstType_0::FloatMemWrite            0      0.00%    100.00% # Number of instructions issued per FU type, per thread (Count)
system.cpu.statIssuedInstType_0::IprAccess            0      0.00%    100.00% # Number of instructions issued per FU type, per thread (Count)
system.cpu.statIssuedInstType_0::InstPrefetch            0      0.00%    100.00% # Number of instructions issued per FU type, per thread (Count)
system.cpu.statIssuedInstType_0::total     1362353152                       # Number of instructions issued per FU type, per thread (Count)
system.cpu.issueRate                         1.042436                       # Inst issue rate ((Count/Cycle))
system.cpu.fuBusy                            39121506                       # FU busy when requested (Count)
system.cpu.fuBusyRate                        0.028716                       # FU busy rate (busy events/executed inst) ((Count/Count))
system.cpu.intInstQueueReads               4079069932                       # Number of integer instruction queue reads (Count)
system.cpu.intInstQueueWrites              1736757877                       # Number of integer instruction queue writes (Count)
system.cpu.intInstQueueWakeupAccesses      1234093083                       # Number of integer instruction queue wakeup accesses (Count)
system.cpu.fpInstQueueReads                         0                       # Number of floating instruction queue reads (Count)
system.cpu.fpInstQueueWrites                        0                       # Number of floating instruction queue writes (Count)
system.cpu.fpInstQueueWakeupAccesses                0                       # Number of floating instruction queue wakeup accesses (Count)
system.cpu.vecInstQueueReads                        0                       # Number of vector instruction queue reads (Count)
system.cpu.vecInstQueueWrites                       0                       # Number of vector instruction queue writes (Count)
system.cpu.vecInstQueueWakeupAccesses               0                       # Number of vector instruction queue wakeup accesses (Count)
system.cpu.intAluAccesses                  1401474655                       # Number of integer alu accesses (Count)
system.cpu.fpAluAccesses                            0                       # Number of floating point alu accesses (Count)
system.cpu.vecAluAccesses                           0                       # Number of vector alu accesses (Count)
system.cpu.numInsts                        1349683384                       # Number of executed instructions (Count)
system.cpu.numLoadInsts                     400898466                       # Number of load instructions executed (Count)
system.cpu.numSquashedInsts                  12669768                       # Number of squashed instructions skipped in execute (Count)
system.cpu.numSwp                                   0                       # Number of swp insts executed (Count)
system.cpu.numNop                                  31                       # Number of nop insts executed (Count)
system.cpu.numRefs                          530444760                       # Number of memory reference insts executed (Count)
system.cpu.numBranches                      267167639                       # Number of branches executed (Count)
system.cpu.numStoreInsts                    129546294                       # Number of stores executed (Count)
system.cpu.numRate                           1.032742                       # Inst execution rate ((Count/Cycle))
system.cpu.timesIdled                             323                       # Number of times that the entire CPU went into an idle state and unscheduled itself (Count)
system.cpu.idleCycles                           12879                       # Total number of cycles that the CPU has spent unscheduled due to idling (Cycle)
system.cpu.committedInsts                  1000000000                       # Number of Instructions Simulated (Count)
system.cpu.committedOps                    1084388561                       # Number of Ops (including micro ops) Simulated (Count)
system.cpu.cpi                               1.306893                       # CPI: Cycles Per Instruction ((Cycle/Count))
system.cpu.totalCpi                          1.306893                       # CPI: Total CPI of All Threads ((Cycle/Count))
system.cpu.ipc                               0.765173                       # IPC: Instructions Per Cycle ((Count/Cycle))
system.cpu.totalIpc                          0.765173                       # IPC: Total IPC of All Threads ((Count/Cycle))
system.cpu.intRegfileReads                 1372678940                       # Number of integer regfile reads (Count)
system.cpu.intRegfileWrites                 648930129                       # Number of integer regfile writes (Count)
system.cpu.vecRegfileReads                         16                       # number of vector regfile reads (Count)
system.cpu.ccRegfileReads                  4865264374                       # number of cc regfile reads (Count)
system.cpu.ccRegfileWrites                  833293692                       # number of cc regfile writes (Count)
system.cpu.miscRegfileReads                 428735669                       # number of misc regfile reads (Count)
system.cpu.miscRegfileWrites                  5052022                       # number of misc regfile writes (Count)
system.cpu.MemDepUnit__0.insertedLoads      342861248                       # Number of loads inserted to the mem dependence unit. (Count)
system.cpu.MemDepUnit__0.insertedStores     142784516                       # Number of stores inserted to the mem dependence unit. (Count)
system.cpu.MemDepUnit__0.conflictingLoads     47169627                       # Number of conflicting loads. (Count)
system.cpu.MemDepUnit__0.conflictingStores     32309200                       # Number of conflicting stores. (Count)
system.cpu.MemDepUnit__1.insertedLoads              0                       # Number of loads inserted to the mem dependence unit. (Count)
system.cpu.MemDepUnit__1.insertedStores             0                       # Number of stores inserted to the mem dependence unit. (Count)
system.cpu.MemDepUnit__1.conflictingLoads            0                       # Number of conflicting loads. (Count)
system.cpu.MemDepUnit__1.conflictingStores            0                       # Number of conflicting stores. (Count)
system.cpu.MemDepUnit__2.insertedLoads              0                       # Number of loads inserted to the mem dependence unit. (Count)
system.cpu.MemDepUnit__2.insertedStores             0                       # Number of stores inserted to the mem dependence unit. (Count)
system.cpu.MemDepUnit__2.conflictingLoads            0                       # Number of conflicting loads. (Count)
system.cpu.MemDepUnit__2.conflictingStores            0                       # Number of conflicting stores. (Count)
system.cpu.MemDepUnit__3.insertedLoads              0                       # Number of loads inserted to the mem dependence unit. (Count)
system.cpu.MemDepUnit__3.insertedStores             0                       # Number of stores inserted to the mem dependence unit. (Count)
system.cpu.MemDepUnit__3.conflictingLoads            0                       # Number of conflicting loads. (Count)
system.cpu.MemDepUnit__3.conflictingStores            0                       # Number of conflicting stores. (Count)
system.cpu.branchPred.lookups               347165509                       # Number of BP lookups (Count)
system.cpu.branchPred.condPredicted         292696491                       # Number of conditional branches predicted (Count)
system.cpu.branchPred.condIncorrect          10296561                       # Number of conditional branches incorrect (Count)
system.cpu.branchPred.BTBLookups            150650790                       # Number of BTB lookups (Count)
system.cpu.branchPred.BTBHits               146963230                       # Number of BTB hits (Count)
system.cpu.branchPred.BTBHitRatio            0.975522                       # BTB Hit Ratio (Ratio)
system.cpu.branchPred.RASUsed                10654163                       # Number of times the RAS was used to get a target. (Count)
system.cpu.branchPred.RASIncorrect                 52                       # Number of incorrect RAS predictions. (Count)
system.cpu.branchPred.indirectLookups         2549278                       # Number of indirect predictor lookups. (Count)
system.cpu.branchPred.indirectHits            1336086                       # Number of indirect target hits. (Count)
system.cpu.branchPred.indirectMisses          1213192                       # Number of indirect misses. (Count)
system.cpu.branchPred.indirectMispredicted         9087                       # Number of mispredicted indirect branches. (Count)
system.cpu.commit.commitSquashedInsts       326454373                       # The number of squashed insts skipped by commit (Count)
system.cpu.commit.commitNonSpecStalls         3789440                       # The number of times commit has been forced to stall to communicate backwards (Count)
system.cpu.commit.branchMispredicts           8237611                       # The number of times a branch was mispredicted (Count)
system.cpu.commit.numCommittedDist::samples   1259349706                       # Number of insts commited each cycle (Count)
system.cpu.commit.numCommittedDist::mean     0.861070                       # Number of insts commited each cycle (Count)
system.cpu.commit.numCommittedDist::stdev     1.943338                       # Number of insts commited each cycle (Count)
system.cpu.commit.numCommittedDist::underflows            0      0.00%      0.00% # Number of insts commited each cycle (Count)
system.cpu.commit.numCommittedDist::0       906707136     72.00%     72.00% # Number of insts commited each cycle (Count)
system.cpu.commit.numCommittedDist::1       157101078     12.47%     84.47% # Number of insts commited each cycle (Count)
system.cpu.commit.numCommittedDist::2        56419556      4.48%     88.95% # Number of insts commited each cycle (Count)
system.cpu.commit.numCommittedDist::3        24078600      1.91%     90.86% # Number of insts commited each cycle (Count)
system.cpu.commit.numCommittedDist::4        22043984      1.75%     92.62% # Number of insts commited each cycle (Count)
system.cpu.commit.numCommittedDist::5        19519501      1.55%     94.17% # Number of insts commited each cycle (Count)
system.cpu.commit.numCommittedDist::6         8927417      0.71%     94.87% # Number of insts commited each cycle (Count)
system.cpu.commit.numCommittedDist::7        13544843      1.08%     95.95% # Number of insts commited each cycle (Count)
system.cpu.commit.numCommittedDist::8        51007591      4.05%    100.00% # Number of insts commited each cycle (Count)
system.cpu.commit.numCommittedDist::overflows            0      0.00%    100.00% # Number of insts commited each cycle (Count)
system.cpu.commit.numCommittedDist::min_value            0                       # Number of insts commited each cycle (Count)
system.cpu.commit.numCommittedDist::max_value            8                       # Number of insts commited each cycle (Count)
system.cpu.commit.numCommittedDist::total   1259349706                       # Number of insts commited each cycle (Count)
system.cpu.commit.instsCommitted           1000000001                       # Number of instructions committed (Count)
system.cpu.commit.opsCommitted             1084388562                       # Number of ops (including micro ops) committed (Count)
system.cpu.commit.memRefs                   371594264                       # Number of memory references committed (Count)
system.cpu.commit.loads                     257232843                       # Number of loads committed (Count)
system.cpu.commit.amos                              0                       # Number of atomic instructions committed (Count)
system.cpu.commit.membars                     2526011                       # Number of memory barriers committed (Count)
system.cpu.commit.branches                  234516986                       # Number of branches committed (Count)
system.cpu.commit.vectorInstructions                0                       # Number of committed Vector instructions. (Count)
system.cpu.commit.floating                          0                       # Number of committed floating point instructions. (Count)
system.cpu.commit.integer                   857333723                       # Number of committed integer instructions. (Count)
system.cpu.commit.functionCalls               6817153                       # Number of function calls committed. (Count)
system.cpu.commit.committedInstType_0::No_OpClass            0      0.00%      0.00% # Class of committed instruction (Count)
system.cpu.commit.committedInstType_0::IntAlu    710093877     65.48%     65.48% # Class of committed instruction (Count)
system.cpu.commit.committedInstType_0::IntMult      2700418      0.25%     65.73% # Class of committed instruction (Count)
system.cpu.commit.committedInstType_0::IntDiv            0      0.00%     65.73% # Class of committed instruction (Count)
system.cpu.commit.committedInstType_0::FloatAdd            0      0.00%     65.73% # Class of committed instruction (Count)
system.cpu.commit.committedInstType_0::FloatCmp            0      0.00%     65.73% # Class of committed instruction (Count)
system.cpu.commit.committedInstType_0::FloatCvt            0      0.00%     65.73% # Class of committed instruction (Count)
system.cpu.commit.committedInstType_0::FloatMult            0      0.00%     65.73% # Class of committed instruction (Count)
system.cpu.commit.committedInstType_0::FloatMultAcc            0      0.00%     65.73% # Class of committed instruction (Count)
system.cpu.commit.committedInstType_0::FloatDiv            0      0.00%     65.73% # Class of committed instruction (Count)
system.cpu.commit.committedInstType_0::FloatMisc            0      0.00%     65.73% # Class of committed instruction (Count)
system.cpu.commit.committedInstType_0::FloatSqrt            0      0.00%     65.73% # Class of committed instruction (Count)
system.cpu.commit.committedInstType_0::SimdAdd            0      0.00%     65.73% # Class of committed instruction (Count)
system.cpu.commit.committedInstType_0::SimdAddAcc            0      0.00%     65.73% # Class of committed instruction (Count)
system.cpu.commit.committedInstType_0::SimdAlu            0      0.00%     65.73% # Class of committed instruction (Count)
system.cpu.commit.committedInstType_0::SimdCmp            0      0.00%     65.73% # Class of committed instruction (Count)
system.cpu.commit.committedInstType_0::SimdCvt            0      0.00%     65.73% # Class of committed instruction (Count)
system.cpu.commit.committedInstType_0::SimdMisc            0      0.00%     65.73% # Class of committed instruction (Count)
system.cpu.commit.committedInstType_0::SimdMult            0      0.00%     65.73% # Class of committed instruction (Count)
system.cpu.commit.committedInstType_0::SimdMultAcc            0      0.00%     65.73% # Class of committed instruction (Count)
system.cpu.commit.committedInstType_0::SimdShift            0      0.00%     65.73% # Class of committed instruction (Count)
system.cpu.commit.committedInstType_0::SimdShiftAcc            0      0.00%     65.73% # Class of committed instruction (Count)
system.cpu.commit.committedInstType_0::SimdDiv            0      0.00%     65.73% # Class of committed instruction (Count)
system.cpu.commit.committedInstType_0::SimdSqrt            0      0.00%     65.73% # Class of committed instruction (Count)
system.cpu.commit.committedInstType_0::SimdFloatAdd            0      0.00%     65.73% # Class of committed instruction (Count)
system.cpu.commit.committedInstType_0::SimdFloatAlu            0      0.00%     65.73% # Class of committed instruction (Count)
system.cpu.commit.committedInstType_0::SimdFloatCmp            0      0.00%     65.73% # Class of committed instruction (Count)
system.cpu.commit.committedInstType_0::SimdFloatCvt            0      0.00%     65.73% # Class of committed instruction (Count)
system.cpu.commit.committedInstType_0::SimdFloatDiv            0      0.00%     65.73% # Class of committed instruction (Count)
system.cpu.commit.committedInstType_0::SimdFloatMisc            3      0.00%     65.73% # Class of committed instruction (Count)
system.cpu.commit.committedInstType_0::SimdFloatMult            0      0.00%     65.73% # Class of committed instruction (Count)
system.cpu.commit.committedInstType_0::SimdFloatMultAcc            0      0.00%     65.73% # Class of committed instruction (Count)
system.cpu.commit.committedInstType_0::SimdFloatSqrt            0      0.00%     65.73% # Class of committed instruction (Count)
system.cpu.commit.committedInstType_0::SimdReduceAdd            0      0.00%     65.73% # Class of committed instruction (Count)
system.cpu.commit.committedInstType_0::SimdReduceAlu            0      0.00%     65.73% # Class of committed instruction (Count)
system.cpu.commit.committedInstType_0::SimdReduceCmp            0      0.00%     65.73% # Class of committed instruction (Count)
system.cpu.commit.committedInstType_0::SimdFloatReduceAdd            0      0.00%     65.73% # Class of committed instruction (Count)
system.cpu.commit.committedInstType_0::SimdFloatReduceCmp            0      0.00%     65.73% # Class of committed instruction (Count)
system.cpu.commit.committedInstType_0::SimdAes            0      0.00%     65.73% # Class of committed instruction (Count)
system.cpu.commit.committedInstType_0::SimdAesMix            0      0.00%     65.73% # Class of committed instruction (Count)
system.cpu.commit.committedInstType_0::SimdSha1Hash            0      0.00%     65.73% # Class of committed instruction (Count)
system.cpu.commit.committedInstType_0::SimdSha1Hash2            0      0.00%     65.73% # Class of committed instruction (Count)
system.cpu.commit.committedInstType_0::SimdSha256Hash            0      0.00%     65.73% # Class of committed instruction (Count)
system.cpu.commit.committedInstType_0::SimdSha256Hash2            0      0.00%     65.73% # Class of committed instruction (Count)
system.cpu.commit.committedInstType_0::SimdShaSigma2            0      0.00%     65.73% # Class of committed instruction (Count)
system.cpu.commit.committedInstType_0::SimdShaSigma3            0      0.00%     65.73% # Class of committed instruction (Count)
system.cpu.commit.committedInstType_0::SimdPredAlu            0      0.00%     65.73% # Class of committed instruction (Count)
system.cpu.commit.committedInstType_0::MemRead    257232843     23.72%     89.45% # Class of committed instruction (Count)
system.cpu.commit.committedInstType_0::MemWrite    114361421     10.55%    100.00% # Class of committed instruction (Count)
system.cpu.commit.committedInstType_0::FloatMemRead            0      0.00%    100.00% # Class of committed instruction (Count)
system.cpu.commit.committedInstType_0::FloatMemWrite            0      0.00%    100.00% # Class of committed instruction (Count)
system.cpu.commit.committedInstType_0::IprAccess            0      0.00%    100.00% # Class of committed instruction (Count)
system.cpu.commit.committedInstType_0::InstPrefetch            0      0.00%    100.00% # Class of committed instruction (Count)
system.cpu.commit.committedInstType_0::total   1084388562                       # Class of committed instruction (Count)
system.cpu.commit.commitEligibleSamples      51007591                       # number cycles where commit BW limit reached (Cycle)
system.cpu.dcache.demandHits::cpu.data      331810294                       # number of demand (read+write) hits (Count)
system.cpu.dcache.demandHits::total         331810294                       # number of demand (read+write) hits (Count)
system.cpu.dcache.overallHits::cpu.data     332026268                       # number of overall hits (Count)
system.cpu.dcache.overallHits::total        332026268                       # number of overall hits (Count)
system.cpu.dcache.demandMisses::cpu.data     66452506                       # number of demand (read+write) misses (Count)
system.cpu.dcache.demandMisses::total        66452506                       # number of demand (read+write) misses (Count)
system.cpu.dcache.overallMisses::cpu.data     66452550                       # number of overall misses (Count)
system.cpu.dcache.overallMisses::total       66452550                       # number of overall misses (Count)
system.cpu.dcache.demandMissLatency::cpu.data 3286375915887                       # number of demand (read+write) miss ticks (Tick)
system.cpu.dcache.demandMissLatency::total 3286375915887                       # number of demand (read+write) miss ticks (Tick)
system.cpu.dcache.overallMissLatency::cpu.data 3286375915887                       # number of overall miss ticks (Tick)
system.cpu.dcache.overallMissLatency::total 3286375915887                       # number of overall miss ticks (Tick)
system.cpu.dcache.demandAccesses::cpu.data    398262800                       # number of demand (read+write) accesses (Count)
system.cpu.dcache.demandAccesses::total     398262800                       # number of demand (read+write) accesses (Count)
system.cpu.dcache.overallAccesses::cpu.data    398478818                       # number of overall (read+write) accesses (Count)
system.cpu.dcache.overallAccesses::total    398478818                       # number of overall (read+write) accesses (Count)
system.cpu.dcache.demandMissRate::cpu.data     0.166856                       # miss rate for demand accesses (Ratio)
system.cpu.dcache.demandMissRate::total      0.166856                       # miss rate for demand accesses (Ratio)
system.cpu.dcache.overallMissRate::cpu.data     0.166766                       # miss rate for overall accesses (Ratio)
system.cpu.dcache.overallMissRate::total     0.166766                       # miss rate for overall accesses (Ratio)
system.cpu.dcache.demandAvgMissLatency::cpu.data 49454.506891                       # average overall miss latency in ticks ((Tick/Count))
system.cpu.dcache.demandAvgMissLatency::total 49454.506891                       # average overall miss latency in ticks ((Tick/Count))
system.cpu.dcache.overallAvgMissLatency::cpu.data 49454.474146                       # average overall miss latency ((Tick/Count))
system.cpu.dcache.overallAvgMissLatency::total 49454.474146                       # average overall miss latency ((Tick/Count))
system.cpu.dcache.blockedCycles::no_mshrs    144879482                       # number of cycles access was blocked (Cycle)
system.cpu.dcache.blockedCycles::no_targets         4436                       # number of cycles access was blocked (Cycle)
system.cpu.dcache.blockedCauses::no_mshrs     13794959                       # number of times access was blocked (Count)
system.cpu.dcache.blockedCauses::no_targets           68                       # number of times access was blocked (Count)
system.cpu.dcache.avgBlocked::no_mshrs      10.502350                       # average number of cycles each access was blocked ((Cycle/Count))
system.cpu.dcache.avgBlocked::no_targets    65.235294                       # average number of cycles each access was blocked ((Cycle/Count))
system.cpu.dcache.writebacks::writebacks     10031719                       # number of writebacks (Count)
system.cpu.dcache.writebacks::total          10031719                       # number of writebacks (Count)
system.cpu.dcache.demandMshrHits::cpu.data     33830124                       # number of demand (read+write) MSHR hits (Count)
system.cpu.dcache.demandMshrHits::total      33830124                       # number of demand (read+write) MSHR hits (Count)
system.cpu.dcache.overallMshrHits::cpu.data     33830124                       # number of overall MSHR hits (Count)
system.cpu.dcache.overallMshrHits::total     33830124                       # number of overall MSHR hits (Count)
system.cpu.dcache.demandMshrMisses::cpu.data     32622382                       # number of demand (read+write) MSHR misses (Count)
system.cpu.dcache.demandMshrMisses::total     32622382                       # number of demand (read+write) MSHR misses (Count)
system.cpu.dcache.overallMshrMisses::cpu.data     32622411                       # number of overall MSHR misses (Count)
system.cpu.dcache.overallMshrMisses::total     32622411                       # number of overall MSHR misses (Count)
system.cpu.dcache.demandMshrMissLatency::cpu.data 1535083890222                       # number of demand (read+write) MSHR miss ticks (Tick)
system.cpu.dcache.demandMshrMissLatency::total 1535083890222                       # number of demand (read+write) MSHR miss ticks (Tick)
system.cpu.dcache.overallMshrMissLatency::cpu.data 1535084694207                       # number of overall MSHR miss ticks (Tick)
system.cpu.dcache.overallMshrMissLatency::total 1535084694207                       # number of overall MSHR miss ticks (Tick)
system.cpu.dcache.demandMshrMissRate::cpu.data     0.081912                       # mshr miss ratio for demand accesses (Ratio)
system.cpu.dcache.demandMshrMissRate::total     0.081912                       # mshr miss ratio for demand accesses (Ratio)
system.cpu.dcache.overallMshrMissRate::cpu.data     0.081867                       # mshr miss ratio for overall accesses (Ratio)
system.cpu.dcache.overallMshrMissRate::total     0.081867                       # mshr miss ratio for overall accesses (Ratio)
system.cpu.dcache.demandAvgMshrMissLatency::cpu.data 47056.155808                       # average overall mshr miss latency ((Tick/Count))
system.cpu.dcache.demandAvgMshrMissLatency::total 47056.155808                       # average overall mshr miss latency ((Tick/Count))
system.cpu.dcache.overallAvgMshrMissLatency::cpu.data 47056.138622                       # average overall mshr miss latency ((Tick/Count))
system.cpu.dcache.overallAvgMshrMissLatency::total 47056.138622                       # average overall mshr miss latency ((Tick/Count))
system.cpu.dcache.replacements               32621891                       # number of replacements (Count)
system.cpu.dcache.LoadLockedReq.hits::cpu.data      1263003                       # number of LoadLockedReq hits (Count)
system.cpu.dcache.LoadLockedReq.hits::total      1263003                       # number of LoadLockedReq hits (Count)
system.cpu.dcache.LoadLockedReq.misses::cpu.data            2                       # number of LoadLockedReq misses (Count)
system.cpu.dcache.LoadLockedReq.misses::total            2                       # number of LoadLockedReq misses (Count)
system.cpu.dcache.LoadLockedReq.missLatency::cpu.data       154429                       # number of LoadLockedReq miss ticks (Tick)
system.cpu.dcache.LoadLockedReq.missLatency::total       154429                       # number of LoadLockedReq miss ticks (Tick)
system.cpu.dcache.LoadLockedReq.accesses::cpu.data      1263005                       # number of LoadLockedReq accesses(hits+misses) (Count)
system.cpu.dcache.LoadLockedReq.accesses::total      1263005                       # number of LoadLockedReq accesses(hits+misses) (Count)
system.cpu.dcache.LoadLockedReq.missRate::cpu.data     0.000002                       # miss rate for LoadLockedReq accesses (Ratio)
system.cpu.dcache.LoadLockedReq.missRate::total     0.000002                       # miss rate for LoadLockedReq accesses (Ratio)
system.cpu.dcache.LoadLockedReq.avgMissLatency::cpu.data 77214.500000                       # average LoadLockedReq miss latency ((Tick/Count))
system.cpu.dcache.LoadLockedReq.avgMissLatency::total 77214.500000                       # average LoadLockedReq miss latency ((Tick/Count))
system.cpu.dcache.LoadLockedReq.mshrMisses::cpu.data            2                       # number of LoadLockedReq MSHR misses (Count)
system.cpu.dcache.LoadLockedReq.mshrMisses::total            2                       # number of LoadLockedReq MSHR misses (Count)
system.cpu.dcache.LoadLockedReq.mshrMissLatency::cpu.data       147853                       # number of LoadLockedReq MSHR miss ticks (Tick)
system.cpu.dcache.LoadLockedReq.mshrMissLatency::total       147853                       # number of LoadLockedReq MSHR miss ticks (Tick)
system.cpu.dcache.LoadLockedReq.mshrMissRate::cpu.data     0.000002                       # mshr miss rate for LoadLockedReq accesses (Ratio)
system.cpu.dcache.LoadLockedReq.mshrMissRate::total     0.000002                       # mshr miss rate for LoadLockedReq accesses (Ratio)
system.cpu.dcache.LoadLockedReq.avgMshrMissLatency::cpu.data 73926.500000                       # average LoadLockedReq mshr miss latency ((Tick/Count))
system.cpu.dcache.LoadLockedReq.avgMshrMissLatency::total 73926.500000                       # average LoadLockedReq mshr miss latency ((Tick/Count))
system.cpu.dcache.ReadReq.hits::cpu.data    223926021                       # number of ReadReq hits (Count)
system.cpu.dcache.ReadReq.hits::total       223926021                       # number of ReadReq hits (Count)
system.cpu.dcache.ReadReq.misses::cpu.data     63977744                       # number of ReadReq misses (Count)
system.cpu.dcache.ReadReq.misses::total      63977744                       # number of ReadReq misses (Count)
system.cpu.dcache.ReadReq.missLatency::cpu.data 3177016148241                       # number of ReadReq miss ticks (Tick)
system.cpu.dcache.ReadReq.missLatency::total 3177016148241                       # number of ReadReq miss ticks (Tick)
system.cpu.dcache.ReadReq.accesses::cpu.data    287903765                       # number of ReadReq accesses(hits+misses) (Count)
system.cpu.dcache.ReadReq.accesses::total    287903765                       # number of ReadReq accesses(hits+misses) (Count)
system.cpu.dcache.ReadReq.missRate::cpu.data     0.222219                       # miss rate for ReadReq accesses (Ratio)
system.cpu.dcache.ReadReq.missRate::total     0.222219                       # miss rate for ReadReq accesses (Ratio)
system.cpu.dcache.ReadReq.avgMissLatency::cpu.data 49658.145937                       # average ReadReq miss latency ((Tick/Count))
system.cpu.dcache.ReadReq.avgMissLatency::total 49658.145937                       # average ReadReq miss latency ((Tick/Count))
system.cpu.dcache.ReadReq.mshrHits::cpu.data     32148228                       # number of ReadReq MSHR hits (Count)
system.cpu.dcache.ReadReq.mshrHits::total     32148228                       # number of ReadReq MSHR hits (Count)
system.cpu.dcache.ReadReq.mshrMisses::cpu.data     31829516                       # number of ReadReq MSHR misses (Count)
system.cpu.dcache.ReadReq.mshrMisses::total     31829516                       # number of ReadReq MSHR misses (Count)
system.cpu.dcache.ReadReq.mshrMissLatency::cpu.data 1500523034440                       # number of ReadReq MSHR miss ticks (Tick)
system.cpu.dcache.ReadReq.mshrMissLatency::total 1500523034440                       # number of ReadReq MSHR miss ticks (Tick)
system.cpu.dcache.ReadReq.mshrMissRate::cpu.data     0.110556                       # mshr miss rate for ReadReq accesses (Ratio)
system.cpu.dcache.ReadReq.mshrMissRate::total     0.110556                       # mshr miss rate for ReadReq accesses (Ratio)
system.cpu.dcache.ReadReq.avgMshrMissLatency::cpu.data 47142.502401                       # average ReadReq mshr miss latency ((Tick/Count))
system.cpu.dcache.ReadReq.avgMshrMissLatency::total 47142.502401                       # average ReadReq mshr miss latency ((Tick/Count))
system.cpu.dcache.SoftPFReq.hits::cpu.data       215974                       # number of SoftPFReq hits (Count)
system.cpu.dcache.SoftPFReq.hits::total        215974                       # number of SoftPFReq hits (Count)
system.cpu.dcache.SoftPFReq.misses::cpu.data           44                       # number of SoftPFReq misses (Count)
system.cpu.dcache.SoftPFReq.misses::total           44                       # number of SoftPFReq misses (Count)
system.cpu.dcache.SoftPFReq.accesses::cpu.data       216018                       # number of SoftPFReq accesses(hits+misses) (Count)
system.cpu.dcache.SoftPFReq.accesses::total       216018                       # number of SoftPFReq accesses(hits+misses) (Count)
system.cpu.dcache.SoftPFReq.missRate::cpu.data     0.000204                       # miss rate for SoftPFReq accesses (Ratio)
system.cpu.dcache.SoftPFReq.missRate::total     0.000204                       # miss rate for SoftPFReq accesses (Ratio)
system.cpu.dcache.SoftPFReq.mshrMisses::cpu.data           29                       # number of SoftPFReq MSHR misses (Count)
system.cpu.dcache.SoftPFReq.mshrMisses::total           29                       # number of SoftPFReq MSHR misses (Count)
system.cpu.dcache.SoftPFReq.mshrMissLatency::cpu.data       803985                       # number of SoftPFReq MSHR miss ticks (Tick)
system.cpu.dcache.SoftPFReq.mshrMissLatency::total       803985                       # number of SoftPFReq MSHR miss ticks (Tick)
system.cpu.dcache.SoftPFReq.mshrMissRate::cpu.data     0.000134                       # mshr miss rate for SoftPFReq accesses (Ratio)
system.cpu.dcache.SoftPFReq.mshrMissRate::total     0.000134                       # mshr miss rate for SoftPFReq accesses (Ratio)
system.cpu.dcache.SoftPFReq.avgMshrMissLatency::cpu.data 27723.620690                       # average SoftPFReq mshr miss latency ((Tick/Count))
system.cpu.dcache.SoftPFReq.avgMshrMissLatency::total 27723.620690                       # average SoftPFReq mshr miss latency ((Tick/Count))
system.cpu.dcache.StoreCondReq.hits::cpu.data      1263005                       # number of StoreCondReq hits (Count)
system.cpu.dcache.StoreCondReq.hits::total      1263005                       # number of StoreCondReq hits (Count)
system.cpu.dcache.StoreCondReq.accesses::cpu.data      1263005                       # number of StoreCondReq accesses(hits+misses) (Count)
system.cpu.dcache.StoreCondReq.accesses::total      1263005                       # number of StoreCondReq accesses(hits+misses) (Count)
system.cpu.dcache.WriteReq.hits::cpu.data    107884273                       # number of WriteReq hits (Count)
system.cpu.dcache.WriteReq.hits::total      107884273                       # number of WriteReq hits (Count)
system.cpu.dcache.WriteReq.misses::cpu.data      2474762                       # number of WriteReq misses (Count)
system.cpu.dcache.WriteReq.misses::total      2474762                       # number of WriteReq misses (Count)
system.cpu.dcache.WriteReq.missLatency::cpu.data 109359767646                       # number of WriteReq miss ticks (Tick)
system.cpu.dcache.WriteReq.missLatency::total 109359767646                       # number of WriteReq miss ticks (Tick)
system.cpu.dcache.WriteReq.accesses::cpu.data    110359035                       # number of WriteReq accesses(hits+misses) (Count)
system.cpu.dcache.WriteReq.accesses::total    110359035                       # number of WriteReq accesses(hits+misses) (Count)
system.cpu.dcache.WriteReq.missRate::cpu.data     0.022425                       # miss rate for WriteReq accesses (Ratio)
system.cpu.dcache.WriteReq.missRate::total     0.022425                       # miss rate for WriteReq accesses (Ratio)
system.cpu.dcache.WriteReq.avgMissLatency::cpu.data 44190.014089                       # average WriteReq miss latency ((Tick/Count))
system.cpu.dcache.WriteReq.avgMissLatency::total 44190.014089                       # average WriteReq miss latency ((Tick/Count))
system.cpu.dcache.WriteReq.mshrHits::cpu.data      1681896                       # number of WriteReq MSHR hits (Count)
system.cpu.dcache.WriteReq.mshrHits::total      1681896                       # number of WriteReq MSHR hits (Count)
system.cpu.dcache.WriteReq.mshrMisses::cpu.data       792866                       # number of WriteReq MSHR misses (Count)
system.cpu.dcache.WriteReq.mshrMisses::total       792866                       # number of WriteReq MSHR misses (Count)
system.cpu.dcache.WriteReq.mshrMissLatency::cpu.data  34560855782                       # number of WriteReq MSHR miss ticks (Tick)
system.cpu.dcache.WriteReq.mshrMissLatency::total  34560855782                       # number of WriteReq MSHR miss ticks (Tick)
system.cpu.dcache.WriteReq.mshrMissRate::cpu.data     0.007184                       # mshr miss rate for WriteReq accesses (Ratio)
system.cpu.dcache.WriteReq.mshrMissRate::total     0.007184                       # mshr miss rate for WriteReq accesses (Ratio)
system.cpu.dcache.WriteReq.avgMshrMissLatency::cpu.data 43589.781605                       # average WriteReq mshr miss latency ((Tick/Count))
system.cpu.dcache.WriteReq.avgMshrMissLatency::total 43589.781605                       # average WriteReq mshr miss latency ((Tick/Count))
system.cpu.dcache.power_state.pwrStateResidencyTicks::UNDEFINED 1451958466299                       # Cumulative time (in ticks) in various power states (Tick)
system.cpu.dcache.tags.tagsInUse           511.972686                       # Average ticks per tags in use ((Tick/Count))
system.cpu.dcache.tags.totalRefs            367174769                       # Total number of references to valid blocks. (Count)
system.cpu.dcache.tags.sampledRefs           32622403                       # Sample count of references to valid blocks. (Count)
system.cpu.dcache.tags.avgRefs              11.255295                       # Average number of references to valid blocks. ((Count/Count))
system.cpu.dcache.tags.warmupTick              108000                       # The tick when the warmup percentage was hit. (Tick)
system.cpu.dcache.tags.occupancies::cpu.data   511.972686                       # Average occupied blocks per tick, per requestor ((Count/Tick))
system.cpu.dcache.tags.avgOccs::cpu.data     0.999947                       # Average percentage of cache occupancy ((Ratio/Tick))
system.cpu.dcache.tags.avgOccs::total        0.999947                       # Average percentage of cache occupancy ((Ratio/Tick))
system.cpu.dcache.tags.occupanciesTaskId::1024          512                       # Occupied blocks per task id (Count)
system.cpu.dcache.tags.ageTaskId_1024::0          127                       # Occupied blocks per task id, per block age (Count)
system.cpu.dcache.tags.ageTaskId_1024::1          384                       # Occupied blocks per task id, per block age (Count)
system.cpu.dcache.tags.ageTaskId_1024::3            1                       # Occupied blocks per task id, per block age (Count)
system.cpu.dcache.tags.ratioOccsTaskId::1024            1                       # Ratio of occupied blocks and all blocks, per task id (Ratio)
system.cpu.dcache.tags.tagAccesses         1636641715                       # Number of tag accesses (Count)
system.cpu.dcache.tags.dataAccesses        1636641715                       # Number of data accesses (Count)
system.cpu.dcache.tags.power_state.pwrStateResidencyTicks::UNDEFINED 1451958466299                       # Cumulative time (in ticks) in various power states (Tick)
system.cpu.decode.idleCycles                140322226                       # Number of cycles decode is idle (Cycle)
system.cpu.decode.blockedCycles             908539775                       # Number of cycles decode is blocked (Cycle)
system.cpu.decode.runCycles                 209412267                       # Number of cycles decode is running (Cycle)
system.cpu.decode.unblockCycles              39503535                       # Number of cycles decode is unblocking (Cycle)
system.cpu.decode.squashCycles                9102628                       # Number of cycles decode is squashing (Cycle)
system.cpu.decode.branchResolved            139147952                       # Number of times decode resolved a branch (Count)
system.cpu.decode.branchMispred               2063238                       # Number of times decode detected a branch misprediction (Count)
system.cpu.decode.decodedInsts             1505440253                       # Number of instructions handled by decode (Count)
system.cpu.decode.squashedInsts               3616851                       # Number of squashed instructions handled by decode (Count)
system.cpu.fetch.icacheStallCycles          185693944                       # Number of cycles fetch is stalled on an Icache miss (Cycle)
system.cpu.fetch.insts                     1507697416                       # Number of instructions fetch has processed (Count)
system.cpu.fetch.branches                   347165509                       # Number of branches that fetch encountered (Count)
system.cpu.fetch.predictedBranches          158953479                       # Number of branches that fetch has predicted taken (Count)
system.cpu.fetch.cycles                    1110024868                       # Number of cycles fetch has run and was not squashing or blocked (Cycle)
system.cpu.fetch.squashCycles                22323160                       # Number of cycles fetch has spent squashing (Cycle)
system.cpu.fetch.miscStallCycles                    4                       # Number of cycles fetch has spent waiting on interrupts, or bad addresses, or out of MSHRs (Cycle)
system.cpu.fetch.pendingTrapStallCycles            19                       # Number of stall cycles due to pending traps (Cycle)
system.cpu.fetch.icacheWaitRetryStallCycles           16                       # Number of stall cycles due to full MSHR (Cycle)
system.cpu.fetch.cacheLines                 180231797                       # Number of cache lines fetched (Count)
system.cpu.fetch.icacheSquashes               3452738                       # Number of outstanding Icache misses that were squashed (Count)
system.cpu.fetch.nisnDist::samples         1306880431                       # Number of instructions fetched each cycle (Total) (Count)
system.cpu.fetch.nisnDist::mean              1.242376                       # Number of instructions fetched each cycle (Total) (Count)
system.cpu.fetch.nisnDist::stdev             2.527708                       # Number of instructions fetched each cycle (Total) (Count)
system.cpu.fetch.nisnDist::underflows               0      0.00%      0.00% # Number of instructions fetched each cycle (Total) (Count)
system.cpu.fetch.nisnDist::0                994577730     76.10%     76.10% # Number of instructions fetched each cycle (Total) (Count)
system.cpu.fetch.nisnDist::1                 18871147      1.44%     77.55% # Number of instructions fetched each cycle (Total) (Count)
system.cpu.fetch.nisnDist::2                 45748333      3.50%     81.05% # Number of instructions fetched each cycle (Total) (Count)
system.cpu.fetch.nisnDist::3                 39136846      2.99%     84.04% # Number of instructions fetched each cycle (Total) (Count)
system.cpu.fetch.nisnDist::4                 28513006      2.18%     86.22% # Number of instructions fetched each cycle (Total) (Count)
system.cpu.fetch.nisnDist::5                 22422295      1.72%     87.94% # Number of instructions fetched each cycle (Total) (Count)
system.cpu.fetch.nisnDist::6                 38579229      2.95%     90.89% # Number of instructions fetched each cycle (Total) (Count)
system.cpu.fetch.nisnDist::7                 14034629      1.07%     91.97% # Number of instructions fetched each cycle (Total) (Count)
system.cpu.fetch.nisnDist::8                104997216      8.03%    100.00% # Number of instructions fetched each cycle (Total) (Count)
system.cpu.fetch.nisnDist::overflows                0      0.00%    100.00% # Number of instructions fetched each cycle (Total) (Count)
system.cpu.fetch.nisnDist::min_value                0                       # Number of instructions fetched each cycle (Total) (Count)
system.cpu.fetch.nisnDist::max_value                8                       # Number of instructions fetched each cycle (Total) (Count)
system.cpu.fetch.nisnDist::total           1306880431                       # Number of instructions fetched each cycle (Total) (Count)
system.cpu.fetch.branchRate                  0.265642                       # Number of branch fetches per cycle (Ratio)
system.cpu.fetch.rate                        1.153650                       # Number of inst fetches per cycle ((Count/Cycle))
system.cpu.icache.demandHits::cpu.inst      180231086                       # number of demand (read+write) hits (Count)
system.cpu.icache.demandHits::total         180231086                       # number of demand (read+write) hits (Count)
system.cpu.icache.overallHits::cpu.inst     180231086                       # number of overall hits (Count)
system.cpu.icache.overallHits::total        180231086                       # number of overall hits (Count)
system.cpu.icache.demandMisses::cpu.inst          711                       # number of demand (read+write) misses (Count)
system.cpu.icache.demandMisses::total             711                       # number of demand (read+write) misses (Count)
system.cpu.icache.overallMisses::cpu.inst          711                       # number of overall misses (Count)
system.cpu.icache.overallMisses::total            711                       # number of overall misses (Count)
system.cpu.icache.demandMissLatency::cpu.inst     49510604                       # number of demand (read+write) miss ticks (Tick)
system.cpu.icache.demandMissLatency::total     49510604                       # number of demand (read+write) miss ticks (Tick)
system.cpu.icache.overallMissLatency::cpu.inst     49510604                       # number of overall miss ticks (Tick)
system.cpu.icache.overallMissLatency::total     49510604                       # number of overall miss ticks (Tick)
system.cpu.icache.demandAccesses::cpu.inst    180231797                       # number of demand (read+write) accesses (Count)
system.cpu.icache.demandAccesses::total     180231797                       # number of demand (read+write) accesses (Count)
system.cpu.icache.overallAccesses::cpu.inst    180231797                       # number of overall (read+write) accesses (Count)
system.cpu.icache.overallAccesses::total    180231797                       # number of overall (read+write) accesses (Count)
system.cpu.icache.demandMissRate::cpu.inst     0.000004                       # miss rate for demand accesses (Ratio)
system.cpu.icache.demandMissRate::total      0.000004                       # miss rate for demand accesses (Ratio)
system.cpu.icache.overallMissRate::cpu.inst     0.000004                       # miss rate for overall accesses (Ratio)
system.cpu.icache.overallMissRate::total     0.000004                       # miss rate for overall accesses (Ratio)
system.cpu.icache.demandAvgMissLatency::cpu.inst 69635.167370                       # average overall miss latency in ticks ((Tick/Count))
system.cpu.icache.demandAvgMissLatency::total 69635.167370                       # average overall miss latency in ticks ((Tick/Count))
system.cpu.icache.overallAvgMissLatency::cpu.inst 69635.167370                       # average overall miss latency ((Tick/Count))
system.cpu.icache.overallAvgMissLatency::total 69635.167370                       # average overall miss latency ((Tick/Count))
system.cpu.icache.blockedCycles::no_mshrs          119                       # number of cycles access was blocked (Cycle)
system.cpu.icache.blockedCycles::no_targets            0                       # number of cycles access was blocked (Cycle)
system.cpu.icache.blockedCauses::no_mshrs            5                       # number of times access was blocked (Count)
system.cpu.icache.blockedCauses::no_targets            0                       # number of times access was blocked (Count)
system.cpu.icache.avgBlocked::no_mshrs      23.800000                       # average number of cycles each access was blocked ((Cycle/Count))
system.cpu.icache.avgBlocked::no_targets          nan                       # average number of cycles each access was blocked ((Cycle/Count))
system.cpu.icache.demandMshrHits::cpu.inst          139                       # number of demand (read+write) MSHR hits (Count)
system.cpu.icache.demandMshrHits::total           139                       # number of demand (read+write) MSHR hits (Count)
system.cpu.icache.overallMshrHits::cpu.inst          139                       # number of overall MSHR hits (Count)
system.cpu.icache.overallMshrHits::total          139                       # number of overall MSHR hits (Count)
system.cpu.icache.demandMshrMisses::cpu.inst          572                       # number of demand (read+write) MSHR misses (Count)
system.cpu.icache.demandMshrMisses::total          572                       # number of demand (read+write) MSHR misses (Count)
system.cpu.icache.overallMshrMisses::cpu.inst          572                       # number of overall MSHR misses (Count)
system.cpu.icache.overallMshrMisses::total          572                       # number of overall MSHR misses (Count)
system.cpu.icache.demandMshrMissLatency::cpu.inst     40860723                       # number of demand (read+write) MSHR miss ticks (Tick)
system.cpu.icache.demandMshrMissLatency::total     40860723                       # number of demand (read+write) MSHR miss ticks (Tick)
system.cpu.icache.overallMshrMissLatency::cpu.inst     40860723                       # number of overall MSHR miss ticks (Tick)
system.cpu.icache.overallMshrMissLatency::total     40860723                       # number of overall MSHR miss ticks (Tick)
system.cpu.icache.demandMshrMissRate::cpu.inst     0.000003                       # mshr miss ratio for demand accesses (Ratio)
system.cpu.icache.demandMshrMissRate::total     0.000003                       # mshr miss ratio for demand accesses (Ratio)
system.cpu.icache.overallMshrMissRate::cpu.inst     0.000003                       # mshr miss ratio for overall accesses (Ratio)
system.cpu.icache.overallMshrMissRate::total     0.000003                       # mshr miss ratio for overall accesses (Ratio)
system.cpu.icache.demandAvgMshrMissLatency::cpu.inst 71434.830420                       # average overall mshr miss latency ((Tick/Count))
system.cpu.icache.demandAvgMshrMissLatency::total 71434.830420                       # average overall mshr miss latency ((Tick/Count))
system.cpu.icache.overallAvgMshrMissLatency::cpu.inst 71434.830420                       # average overall mshr miss latency ((Tick/Count))
system.cpu.icache.overallAvgMshrMissLatency::total 71434.830420                       # average overall mshr miss latency ((Tick/Count))
system.cpu.icache.replacements                    125                       # number of replacements (Count)
system.cpu.icache.ReadReq.hits::cpu.inst    180231086                       # number of ReadReq hits (Count)
system.cpu.icache.ReadReq.hits::total       180231086                       # number of ReadReq hits (Count)
system.cpu.icache.ReadReq.misses::cpu.inst          711                       # number of ReadReq misses (Count)
system.cpu.icache.ReadReq.misses::total           711                       # number of ReadReq misses (Count)
system.cpu.icache.ReadReq.missLatency::cpu.inst     49510604                       # number of ReadReq miss ticks (Tick)
system.cpu.icache.ReadReq.missLatency::total     49510604                       # number of ReadReq miss ticks (Tick)
system.cpu.icache.ReadReq.accesses::cpu.inst    180231797                       # number of ReadReq accesses(hits+misses) (Count)
system.cpu.icache.ReadReq.accesses::total    180231797                       # number of ReadReq accesses(hits+misses) (Count)
system.cpu.icache.ReadReq.missRate::cpu.inst     0.000004                       # miss rate for ReadReq accesses (Ratio)
system.cpu.icache.ReadReq.missRate::total     0.000004                       # miss rate for ReadReq accesses (Ratio)
system.cpu.icache.ReadReq.avgMissLatency::cpu.inst 69635.167370                       # average ReadReq miss latency ((Tick/Count))
system.cpu.icache.ReadReq.avgMissLatency::total 69635.167370                       # average ReadReq miss latency ((Tick/Count))
system.cpu.icache.ReadReq.mshrHits::cpu.inst          139                       # number of ReadReq MSHR hits (Count)
system.cpu.icache.ReadReq.mshrHits::total          139                       # number of ReadReq MSHR hits (Count)
system.cpu.icache.ReadReq.mshrMisses::cpu.inst          572                       # number of ReadReq MSHR misses (Count)
system.cpu.icache.ReadReq.mshrMisses::total          572                       # number of ReadReq MSHR misses (Count)
system.cpu.icache.ReadReq.mshrMissLatency::cpu.inst     40860723                       # number of ReadReq MSHR miss ticks (Tick)
system.cpu.icache.ReadReq.mshrMissLatency::total     40860723                       # number of ReadReq MSHR miss ticks (Tick)
system.cpu.icache.ReadReq.mshrMissRate::cpu.inst     0.000003                       # mshr miss rate for ReadReq accesses (Ratio)
system.cpu.icache.ReadReq.mshrMissRate::total     0.000003                       # mshr miss rate for ReadReq accesses (Ratio)
system.cpu.icache.ReadReq.avgMshrMissLatency::cpu.inst 71434.830420                       # average ReadReq mshr miss latency ((Tick/Count))
system.cpu.icache.ReadReq.avgMshrMissLatency::total 71434.830420                       # average ReadReq mshr miss latency ((Tick/Count))
system.cpu.icache.power_state.pwrStateResidencyTicks::UNDEFINED 1451958466299                       # Cumulative time (in ticks) in various power states (Tick)
system.cpu.icache.tags.tagsInUse           422.043627                       # Average ticks per tags in use ((Tick/Count))
system.cpu.icache.tags.totalRefs            180231658                       # Total number of references to valid blocks. (Count)
system.cpu.icache.tags.sampledRefs                572                       # Sample count of references to valid blocks. (Count)
system.cpu.icache.tags.avgRefs           315090.311189                       # Average number of references to valid blocks. ((Count/Count))
system.cpu.icache.tags.warmupTick               82000                       # The tick when the warmup percentage was hit. (Tick)
system.cpu.icache.tags.occupancies::cpu.inst   422.043627                       # Average occupied blocks per tick, per requestor ((Count/Tick))
system.cpu.icache.tags.avgOccs::cpu.inst     0.824304                       # Average percentage of cache occupancy ((Ratio/Tick))
system.cpu.icache.tags.avgOccs::total        0.824304                       # Average percentage of cache occupancy ((Ratio/Tick))
system.cpu.icache.tags.occupanciesTaskId::1024          437                       # Occupied blocks per task id (Count)
system.cpu.icache.tags.ageTaskId_1024::4          437                       # Occupied blocks per task id, per block age (Count)
system.cpu.icache.tags.ratioOccsTaskId::1024     0.853516                       # Ratio of occupied blocks and all blocks, per task id (Ratio)
system.cpu.icache.tags.tagAccesses          720927760                       # Number of tag accesses (Count)
system.cpu.icache.tags.dataAccesses         720927760                       # Number of data accesses (Count)
system.cpu.icache.tags.power_state.pwrStateResidencyTicks::UNDEFINED 1451958466299                       # Cumulative time (in ticks) in various power states (Tick)
system.cpu.iew.idleCycles                           0                       # Number of cycles IEW is idle (Cycle)
system.cpu.iew.squashCycles                   9102628                       # Number of cycles IEW is squashing (Cycle)
system.cpu.iew.blockCycles                  615042677                       # Number of cycles IEW is blocking (Cycle)
system.cpu.iew.unblockCycles                 45208389                       # Number of cycles IEW is unblocking (Cycle)
system.cpu.iew.dispatchedInsts             1410139234                       # Number of instructions dispatched to IQ (Count)
system.cpu.iew.dispSquashedInsts              3183926                       # Number of squashed instructions skipped by dispatch (Count)
system.cpu.iew.dispLoadInsts                342861248                       # Number of dispatched load instructions (Count)
system.cpu.iew.dispStoreInsts               142784516                       # Number of dispatched store instructions (Count)
system.cpu.iew.dispNonSpecInsts               1266999                       # Number of dispatched non-speculative instructions (Count)
system.cpu.iew.iqFullEvents                   4324233                       # Number of times the IQ has become full, causing a stall (Count)
system.cpu.iew.lsqFullEvents                 35006900                       # Number of times the LSQ has become full, causing a stall (Count)
system.cpu.iew.memOrderViolationEvents         869092                       # Number of memory order violations (Count)
system.cpu.iew.predictedTakenIncorrect        4289271                       # Number of branches that were predicted taken incorrectly (Count)
system.cpu.iew.predictedNotTakenIncorrect      5058681                       # Number of branches that were predicted not taken incorrectly (Count)
system.cpu.iew.branchMispredicts              9347952                       # Number of branch mispredicts detected at execute (Count)
system.cpu.iew.instsToCommit               1238967889                       # Cumulative count of insts sent to commit (Count)
system.cpu.iew.writebackCount              1234093083                       # Cumulative count of insts written-back (Count)
system.cpu.iew.producerInst                 682450133                       # Number of instructions producing a value (Count)
system.cpu.iew.consumerInst                1205389567                       # Number of instructions consuming a value (Count)
system.cpu.iew.wbRate                        0.944295                       # Insts written-back per cycle ((Count/Cycle))
system.cpu.iew.wbFanout                      0.566166                       # Average fanout of values written-back ((Count/Count))
system.cpu.lsq0.forwLoads                    13329327                       # Number of loads that had data forwarded from stores (Count)
system.cpu.lsq0.squashedLoads                85628383                       # Number of loads squashed (Count)
system.cpu.lsq0.ignoredResponses               256337                       # Number of memory responses ignored because the instruction is squashed (Count)
system.cpu.lsq0.memOrderViolation              869092                       # Number of memory ordering violations (Count)
system.cpu.lsq0.squashedStores               28423092                       # Number of stores squashed (Count)
system.cpu.lsq0.rescheduledLoads              5063970                       # Number of loads that were rescheduled (Count)
system.cpu.lsq0.blockedByCache               13075809                       # Number of times an access to memory failed due to the cache being blocked (Count)
system.cpu.lsq0.loadToUse::samples          257022175                       # Distribution of cycle latency between the first time a load is issued and its completion (Unspecified)
system.cpu.lsq0.loadToUse::mean             13.599287                       # Distribution of cycle latency between the first time a load is issued and its completion (Unspecified)
system.cpu.lsq0.loadToUse::stdev            29.690495                       # Distribution of cycle latency between the first time a load is issued and its completion (Unspecified)
system.cpu.lsq0.loadToUse::0-9              203735595     79.27%     79.27% # Distribution of cycle latency between the first time a load is issued and its completion (Unspecified)
system.cpu.lsq0.loadToUse::10-19             19617708      7.63%     86.90% # Distribution of cycle latency between the first time a load is issued and its completion (Unspecified)
system.cpu.lsq0.loadToUse::20-29              3819612      1.49%     88.39% # Distribution of cycle latency between the first time a load is issued and its completion (Unspecified)
system.cpu.lsq0.loadToUse::30-39              1650226      0.64%     89.03% # Distribution of cycle latency between the first time a load is issued and its completion (Unspecified)
system.cpu.lsq0.loadToUse::40-49              1142376      0.44%     89.47% # Distribution of cycle latency between the first time a load is issued and its completion (Unspecified)
system.cpu.lsq0.loadToUse::50-59               919184      0.36%     89.83% # Distribution of cycle latency between the first time a load is issued and its completion (Unspecified)
[...]
system.mem_ctrl.dram.perBankRdBursts::8        479786                       # Per bank write bursts (Count)
system.mem_ctrl.dram.perBankRdBursts::9        479927                       # Per bank write bursts (Count)
system.mem_ctrl.dram.perBankRdBursts::10       467036                       # Per bank write bursts (Count)
system.mem_ctrl.dram.perBankRdBursts::11       466236                       # Per bank write bursts (Count)
system.mem_ctrl.dram.perBankRdBursts::12       446928                       # Per bank write bursts (Count)
system.mem_ctrl.dram.perBankRdBursts::13       461417                       # Per bank write bursts (Count)
system.mem_ctrl.dram.perBankRdBursts::14       458433                       # Per bank write bursts (Count)
system.mem_ctrl.dram.perBankRdBursts::15       459896                       # Per bank write bursts (Count)
system.mem_ctrl.dram.perBankRdBursts::16       446047                       # Per bank write bursts (Count)
system.mem_ctrl.dram.perBankRdBursts::17       461341                       # Per bank write bursts (Count)
system.mem_ctrl.dram.perBankRdBursts::18       430895                       # Per bank write bursts (Count)
system.mem_ctrl.dram.perBankRdBursts::19       447379                       # Per bank write bursts (Count)
system.mem_ctrl.dram.perBankRdBursts::20       439045                       # Per bank write bursts (Count)
system.mem_ctrl.dram.perBankRdBursts::21       456716                       # Per bank write bursts (Count)
system.mem_ctrl.dram.perBankRdBursts::22       448580                       # Per bank write bursts (Count)
system.mem_ctrl.dram.perBankRdBursts::23       465700                       # Per bank write bursts (Count)
system.mem_ctrl.dram.perBankRdBursts::24       474093                       # Per bank write bursts (Count)
system.mem_ctrl.dram.perBankRdBursts::25       464760                       # Per bank write bursts (Count)
system.mem_ctrl.dram.perBankRdBursts::26       462192                       # Per bank write bursts (Count)
system.mem_ctrl.dram.perBankRdBursts::27       470834                       # Per bank write bursts (Count)
system.mem_ctrl.dram.perBankRdBursts::28       468481                       # Per bank write bursts (Count)
system.mem_ctrl.dram.perBankRdBursts::29       470048                       # Per bank write bursts (Count)
system.mem_ctrl.dram.perBankRdBursts::30       482563                       # Per bank write bursts (Count)
system.mem_ctrl.dram.perBankRdBursts::31       466629                       # Per bank write bursts (Count)
system.mem_ctrl.dram.perBankWrBursts::0        179804                       # Per bank write bursts (Count)
system.mem_ctrl.dram.perBankWrBursts::1        172913                       # Per bank write bursts (Count)
system.mem_ctrl.dram.perBankWrBursts::2        180284                       # Per bank write bursts (Count)
system.mem_ctrl.dram.perBankWrBursts::3        172748                       # Per bank write bursts (Count)
system.mem_ctrl.dram.perBankWrBursts::4        178766                       # Per bank write bursts (Count)
system.mem_ctrl.dram.perBankWrBursts::5        172113                       # Per bank write bursts (Count)
system.mem_ctrl.dram.perBankWrBursts::6        180187                       # Per bank write bursts (Count)
system.mem_ctrl.dram.perBankWrBursts::7        171608                       # Per bank write bursts (Count)
system.mem_ctrl.dram.perBankWrBursts::8        179849                       # Per bank write bursts (Count)
system.mem_ctrl.dram.perBankWrBursts::9        179988                       # Per bank write bursts (Count)
system.mem_ctrl.dram.perBankWrBursts::10       172402                       # Per bank write bursts (Count)
system.mem_ctrl.dram.perBankWrBursts::11       179249                       # Per bank write bursts (Count)
system.mem_ctrl.dram.perBankWrBursts::12       171847                       # Per bank write bursts (Count)
system.mem_ctrl.dram.perBankWrBursts::13       179158                       # Per bank write bursts (Count)
system.mem_ctrl.dram.perBankWrBursts::14       176986                       # Per bank write bursts (Count)
system.mem_ctrl.dram.perBankWrBursts::15       179163                       # Per bank write bursts (Count)
system.mem_ctrl.dram.perBankWrBursts::16       172885                       # Per bank write bursts (Count)
system.mem_ctrl.dram.perBankWrBursts::17       178993                       # Per bank write bursts (Count)
system.mem_ctrl.dram.perBankWrBursts::18       163603                       # Per bank write bursts (Count)
system.mem_ctrl.dram.perBankWrBursts::19       178712                       # Per bank write bursts (Count)
system.mem_ctrl.dram.perBankWrBursts::20       163678                       # Per bank write bursts (Count)
system.mem_ctrl.dram.perBankWrBursts::21       180874                       # Per bank write bursts (Count)
system.mem_ctrl.dram.perBankWrBursts::22       172688                       # Per bank write bursts (Count)
system.mem_ctrl.dram.perBankWrBursts::23       179470                       # Per bank write bursts (Count)
system.mem_ctrl.dram.perBankWrBursts::24       172788                       # Per bank write bursts (Count)
system.mem_ctrl.dram.perBankWrBursts::25       179924                       # Per bank write bursts (Count)
system.mem_ctrl.dram.perBankWrBursts::26       172668                       # Per bank write bursts (Count)
system.mem_ctrl.dram.perBankWrBursts::27       180207                       # Per bank write bursts (Count)
system.mem_ctrl.dram.perBankWrBursts::28       179894                       # Per bank write bursts (Count)
system.mem_ctrl.dram.perBankWrBursts::29       172475                       # Per bank write bursts (Count)
system.mem_ctrl.dram.perBankWrBursts::30       179437                       # Per bank write bursts (Count)
system.mem_ctrl.dram.perBankWrBursts::31       172126                       # Per bank write bursts (Count)
system.mem_ctrl.dram.totQLat             291976550500                       # Total ticks spent queuing (Tick)
system.mem_ctrl.dram.totBusLat            49604580228                       # Total ticks spent in databus transfers (Tick)
system.mem_ctrl.dram.totMemAccLat        552385709368                       # Total ticks spent from burst creation until serviced by the DRAM (Tick)
system.mem_ctrl.dram.avgQLat                 19612.42                       # Average queueing delay per DRAM burst ((Tick/Count))
system.mem_ctrl.dram.avgBusLat                3332.00                       # Average bus latency per DRAM burst ((Tick/Count))
system.mem_ctrl.dram.avgMemAccLat            37104.42                       # Average memory access latency per DRAM burst ((Tick/Count))
system.mem_ctrl.dram.readRowHits              6997519                       # Number of row buffer hits during reads (Count)
system.mem_ctrl.dram.writeRowHits             2820037                       # Number of row buffer hits during writes (Count)
system.mem_ctrl.dram.readRowHitRate             47.00                       # Row buffer hit rate for reads (Ratio)
system.mem_ctrl.dram.writeRowHitRate            50.11                       # Row buffer hit rate for writes (Ratio)
system.mem_ctrl.dram.bytesPerActivate::samples     10697258                       # Bytes accessed per row activation (Byte)
system.mem_ctrl.dram.bytesPerActivate::mean   122.736882                       # Bytes accessed per row activation (Byte)
system.mem_ctrl.dram.bytesPerActivate::gmean    85.502861                       # Bytes accessed per row activation (Byte)
system.mem_ctrl.dram.bytesPerActivate::stdev   176.940369                       # Bytes accessed per row activation (Byte)
system.mem_ctrl.dram.bytesPerActivate::0-127      8409405     78.61%     78.61% # Bytes accessed per row activation (Byte)
system.mem_ctrl.dram.bytesPerActivate::128-255      1307895     12.23%     90.84% # Bytes accessed per row activation (Byte)
system.mem_ctrl.dram.bytesPerActivate::256-383       253347      2.37%     93.21% # Bytes accessed per row activation (Byte)
system.mem_ctrl.dram.bytesPerActivate::384-511       186527      1.74%     94.95% # Bytes accessed per row activation (Byte)
system.mem_ctrl.dram.bytesPerActivate::512-639       129789      1.21%     96.16% # Bytes accessed per row activation (Byte)
system.mem_ctrl.dram.bytesPerActivate::640-767        85752      0.80%     96.97% # Bytes accessed per row activation (Byte)
system.mem_ctrl.dram.bytesPerActivate::768-895        60931      0.57%     97.54% # Bytes accessed per row activation (Byte)
system.mem_ctrl.dram.bytesPerActivate::896-1023        47967      0.45%     97.98% # Bytes accessed per row activation (Byte)
system.mem_ctrl.dram.bytesPerActivate::1024-1151       215645      2.02%    100.00% # Bytes accessed per row activation (Byte)
system.mem_ctrl.dram.bytesPerActivate::total     10697258                       # Bytes accessed per row activation (Byte)
system.mem_ctrl.dram.bytesRead              952789056                       # Total bytes read (Byte)
system.mem_ctrl.dram.bytesWritten           360159168                       # Total bytes written (Byte)
system.mem_ctrl.dram.avgRdBW               656.209580                       # Average DRAM read bandwidth in MiBytes/s ((Byte/Second))
system.mem_ctrl.dram.avgWrBW               248.050599                       # Average DRAM write bandwidth in MiBytes/s ((Byte/Second))
system.mem_ctrl.dram.peakBW                  19207.00                       # Theoretical peak bandwidth in MiByte/s ((Byte/Second))
system.mem_ctrl.dram.busUtil                     4.71                       # Data bus utilization in percentage (Ratio)
system.mem_ctrl.dram.busUtilRead                 3.42                       # Data bus utilization in percentage for reads (Ratio)
system.mem_ctrl.dram.busUtilWrite                1.29                       # Data bus utilization in percentage for writes (Ratio)
system.mem_ctrl.dram.pageHitRate                47.86                       # Row buffer hit rate, read and write combined (Ratio)
system.mem_ctrl.dram.power_state.pwrStateResidencyTicks::UNDEFINED 1451958466299                       # Cumulative time (in ticks) in various power states (Tick)
system.mem_ctrl.dram.rank0.actEnergy     16723474893.215363                       # Energy for activate commands per rank (pJ) (Joule)
system.mem_ctrl.dram.rank0.preEnergy     22233637174.323849                       # Energy for precharge commands per rank (pJ) (Joule)
system.mem_ctrl.dram.rank0.readEnergy    31682087501.836029                       # Energy for read commands per rank (pJ) (Joule)
system.mem_ctrl.dram.rank0.writeEnergy   10625512494.240213                       # Energy for write commands per rank (pJ) (Joule)
system.mem_ctrl.dram.rank0.refreshEnergy 258354917563.213074                       # Energy for refresh commands per rank (pJ) (Joule)
system.mem_ctrl.dram.rank0.actBackEnergy 961128699089.322266                       # Energy for active background per rank (pJ) (Joule)
system.mem_ctrl.dram.rank0.preBackEnergy 209344119404.089264                       # Energy for precharge background per rank (pJ) (Joule)
system.mem_ctrl.dram.rank0.actPowerDownEnergy            0                       # Energy for active power-down per rank (pJ) (Joule)
system.mem_ctrl.dram.rank0.prePowerDownEnergy            0                       # Energy for precharge power-down per rank (pJ) (Joule)
system.mem_ctrl.dram.rank0.selfRefreshEnergy            0                       # Energy for self refresh per rank (pJ) (Joule)
system.mem_ctrl.dram.rank0.totalEnergy   1510092448121.257568                       # Total energy per rank (pJ) (Joule)
system.mem_ctrl.dram.rank0.averagePower   1040.038323                       # Core power per rank (mW) (Watt)
system.mem_ctrl.dram.rank0.totalIdleTime            0                       # Total Idle time Per DRAM Rank (Tick)
system.mem_ctrl.dram.rank0.pwrStateTime::IDLE 314358629536                       # Time in different power states (Tick)
system.mem_ctrl.dram.rank0.pwrStateTime::REF  65270450000                       # Time in different power states (Tick)
system.mem_ctrl.dram.rank0.pwrStateTime::SREF            0                       # Time in different power states (Tick)
system.mem_ctrl.dram.rank0.pwrStateTime::PRE_PDN            0                       # Time in different power states (Tick)
system.mem_ctrl.dram.rank0.pwrStateTime::ACT 1072329386763                       # Time in different power states (Tick)
system.mem_ctrl.dram.rank0.pwrStateTime::ACT_PDN            0                       # Time in different power states (Tick)
system.mem_ctrl.dram.rank1.actEnergy     16638626126.302908                       # Energy for activate commands per rank (pJ) (Joule)
system.mem_ctrl.dram.rank1.preEnergy     22120840119.200207                       # Energy for precharge commands per rank (pJ) (Joule)
system.mem_ctrl.dram.rank1.readEnergy    30938734577.989712                       # Energy for read commands per rank (pJ) (Joule)
system.mem_ctrl.dram.rank1.writeEnergy   10525374885.311878                       # Energy for write commands per rank (pJ) (Joule)
system.mem_ctrl.dram.rank1.refreshEnergy 258354917563.213074                       # Energy for refresh commands per rank (pJ) (Joule)
system.mem_ctrl.dram.rank1.actBackEnergy 959557857249.460815                       # Energy for active background per rank (pJ) (Joule)
system.mem_ctrl.dram.rank1.preBackEnergy 210551093925.079803                       # Energy for precharge background per rank (pJ) (Joule)
system.mem_ctrl.dram.rank1.actPowerDownEnergy            0                       # Energy for active power-down per rank (pJ) (Joule)
system.mem_ctrl.dram.rank1.prePowerDownEnergy            0                       # Energy for precharge power-down per rank (pJ) (Joule)
system.mem_ctrl.dram.rank1.selfRefreshEnergy            0                       # Energy for self refresh per rank (pJ) (Joule)
system.mem_ctrl.dram.rank1.totalEnergy   1508687444447.600586                       # Total energy per rank (pJ) (Joule)
system.mem_ctrl.dram.rank1.averagePower   1039.070662                       # Core power per rank (mW) (Watt)
system.mem_ctrl.dram.rank1.totalIdleTime            0                       # Total Idle time Per DRAM Rank (Tick)
system.mem_ctrl.dram.rank1.pwrStateTime::IDLE 316317728147                       # Time in different power states (Tick)
system.mem_ctrl.dram.rank1.pwrStateTime::REF  65270450000                       # Time in different power states (Tick)
system.mem_ctrl.dram.rank1.pwrStateTime::SREF            0                       # Time in different power states (Tick)
system.mem_ctrl.dram.rank1.pwrStateTime::PRE_PDN            0                       # Time in different power states (Tick)
system.mem_ctrl.dram.rank1.pwrStateTime::ACT 1070370288152                       # Time in different power states (Tick)
system.mem_ctrl.dram.rank1.pwrStateTime::ACT_PDN            0                       # Time in different power states (Tick)
system.mem_ctrl.power_state.pwrStateResidencyTicks::UNDEFINED 1451958466299                       # Cumulative time (in ticks) in various power states (Tick)
system.membus.transDist::ReadResp            14579257                       # Transaction distribution (Count)
system.membus.transDist::WritebackDirty       5627548                       # Transaction distribution (Count)
system.membus.transDist::CleanEvict           9232991                       # Transaction distribution (Count)
system.membus.transDist::UpgradeReq                 7                       # Transaction distribution (Count)
system.membus.transDist::ReadExReq             314785                       # Transaction distribution (Count)
system.membus.transDist::ReadExResp            314785                       # Transaction distribution (Count)
system.membus.transDist::ReadSharedReq       14579257                       # Transaction distribution (Count)
system.membus.pktCount_system.l2cache.mem_side_port::system.mem_ctrl.port     44648630                       # Packet count per connected requestor and responder (Count)
system.membus.pktCount::total                44648630                       # Packet count per connected requestor and responder (Count)
system.membus.pktSize_system.l2cache.mem_side_port::system.mem_ctrl.port   1313381760                       # Cumulative packet size per connected requestor and responder (Byte)
system.membus.pktSize::total               1313381760                       # Cumulative packet size per connected requestor and responder (Byte)
system.membus.snoops                                0                       # Total snoops (Count)
system.membus.snoopTraffic                          0                       # Total snoop traffic (Byte)
system.membus.snoopFanout::samples           14894049                       # Request fanout histogram (Count)
system.membus.snoopFanout::mean                     0                       # Request fanout histogram (Count)
system.membus.snoopFanout::stdev                    0                       # Request fanout histogram (Count)
system.membus.snoopFanout::underflows               0      0.00%      0.00% # Request fanout histogram (Count)
system.membus.snoopFanout::0                 14894049    100.00%    100.00% # Request fanout histogram (Count)
system.membus.snoopFanout::1                        0      0.00%    100.00% # Request fanout histogram (Count)
system.membus.snoopFanout::overflows                0      0.00%    100.00% # Request fanout histogram (Count)
system.membus.snoopFanout::min_value                0                       # Request fanout histogram (Count)
system.membus.snoopFanout::max_value                0                       # Request fanout histogram (Count)
system.membus.snoopFanout::total             14894049                       # Request fanout histogram (Count)
system.membus.power_state.pwrStateResidencyTicks::UNDEFINED 1451958466299                       # Cumulative time (in ticks) in various power states (Tick)
system.membus.reqLayer0.occupancy         29408326922                       # Layer occupancy (ticks) (Tick)
system.membus.reqLayer0.utilization               0.0                       # Layer utilization (Ratio)
system.membus.respLayer0.occupancy        39314973450                       # Layer occupancy (ticks) (Tick)
system.membus.respLayer0.utilization              0.0                       # Layer utilization (Ratio)
system.membus.snoop_filter.totRequests       29754588                       # Total number of requests made to the snoop filter. (Count)
system.membus.snoop_filter.hitSingleRequests     14860846                       # Number of requests hitting in the snoop filter with a single holder of the requested data. (Count)
system.membus.snoop_filter.hitMultiRequests            0                       # Number of requests hitting in the snoop filter with multiple (>1) holders of the requested data. (Count)
system.membus.snoop_filter.totSnoops                0                       # Total number of snoops made to the snoop filter. (Count)
system.membus.snoop_filter.hitSingleSnoops            0                       # Number of snoops hitting in the snoop filter with a single holder of the requested data. (Count)
system.membus.snoop_filter.hitMultiSnoops            0                       # Number of snoops hitting in the snoop filter with multiple (>1) holders of the requested data. (Count)
system.workload.inst.arm                            0                       # number of arm instructions executed (Count)
system.workload.inst.quiesce                        0                       # number of quiesce instructions executed (Count)

---------- End Simulation Statistics   ----------
