
---------- Begin Simulation Statistics ----------
simSeconds                                   0.994879                       # Number of seconds simulated (Second)
simTicks                                 994878731494                       # Number of ticks simulated (Tick)
finalTick                                994878731494                       # Number of ticks from beginning of simulation (restored from checkpoints and never reset) (Tick)
simFreq                                  1000000000000                       # The number of ticks per simulated second ((Tick/Second))
hostSeconds                                   5832.64                       # Real time elapsed on the host (Second)
hostTickRate                                170570784                       # The number of ticks simulated per host second (ticks/s) ((Tick/Second))
hostMemory                                    2287740                       # Number of bytes of host memory used (Byte)
simInsts                                   1000000000                       # Number of instructions simulated (Count)
simOps                                     1084388561                       # Number of ops (including micro ops) simulated (Count)
hostInstRate                                   171449                       # Simulator instruction rate (inst/s) ((Count/Second))
hostOpRate                                     185917                       # Simulator op (including micro ops) rate (op/s) ((Count/Second))
system.clk_domain.clock                           500                       # Clock period in ticks (Tick)
system.clk_domain.voltage_domain.voltage            1                       # Voltage in Volts (Volt)
system.cpu.numCycles                       3578700474                       # Number of cpu cycles simulated (Cycle)
system.cpu.numWorkItemsStarted                      0                       # Number of work items this cpu started (Count)
system.cpu.numWorkItemsCompleted                    0                       # Number of work items this cpu completed (Count)
system.cpu.instsAdded                      1422681644                       # Number of instructions added to the IQ (excludes non-spec) (Count)
system.cpu.nonSpecInstsAdded                  3803927                       # Number of non-speculative instructions added to the IQ (Count)
system.cpu.instsIssued                     1421222681                       # Number of instructions issued (Count)
system.cpu.squashedInstsIssued               10687858                       # Number of squashed instructions issued (Count)
system.cpu.squashedInstsExamined            342096944                       # Number of squashed instructions iterated over during squash; mainly for profiling (Count)
system.cpu.squashedOperandsExamined         801192728                       # Number of squashed operands that are examined and possibly removed from graph (Count)
system.cpu.squashedNonSpecRemoved               14487                       # Number of squashed non-spec instructions that were removed (Count)
system.cpu.numIssuedDist::samples          3578628030                       # Number of insts issued each cycle (Count)
system.cpu.numIssuedDist::mean               0.397142                       # Number of insts issued each cycle (Count)
system.cpu.numIssuedDist::stdev              1.197025                       # Number of insts issued each cycle (Count)
system.cpu.numIssuedDist::underflows                0      0.00%      0.00% # Number of insts issued each cycle (Count)
system.cpu.numIssuedDist::0                3083423389     86.16%     86.16% # Number of insts issued each cycle (Count)
system.cpu.numIssuedDist::1                 150301878      4.20%     90.36% # Number of insts issued each cycle (Count)
system.cpu.numIssuedDist::2                 101644332      2.84%     93.20% # Number of insts issued each cycle (Count)
system.cpu.numIssuedDist::3                  76513359      2.14%     95.34% # Number of insts issued each cycle (Count)
system.cpu.numIssuedDist::4                  75008456      2.10%     97.44% # Number of insts issued each cycle (Count)
system.cpu.numIssuedDist::5                  43383075      1.21%     98.65% # Number of insts issued each cycle (Count)
system.cpu.numIssuedDist::6                  26288328      0.73%     99.38% # Number of insts issued each cycle (Count)
system.cpu.numIssuedDist::7                  13108809      0.37%     99.75% # Number of insts issued each cycle (Count)
system.cpu.numIssuedDist::8                   8956404      0.25%    100.00% # Number of insts issued each cycle (Count)
system.cpu.numIssuedDist::overflows                 0      0.00%    100.00% # Number of insts issued each cycle (Count)
system.cpu.numIssuedDist::min_value                 0                       # Number of insts issued each cycle (Count)
system.cpu.numIssuedDist::max_value                 8                       # Number of insts issued each cycle (Count)
system.cpu.numIssuedDist::total            3578628030                       # Number of insts issued each cycle (Count)
system.cpu.statFuBusy::No_OpClass                   0      0.00%      0.00% # attempts to use FU when none available (Count)
system.cpu.statFuBusy::IntAlu                 1144993      2.36%      2.36% # attempts to use FU when none available (Count)
system.cpu.statFuBusy::IntMult                      0      0.00%      2.36% # attempts to use FU when none available (Count)
system.cpu.statFuBusy::IntDiv                       0      0.00%      2.36% # attempts to use FU when none available (Count)
system.cpu.statFuBusy::FloatAdd                     0      0.00%      2.36% # attempts to use FU when none available (Count)
system.cpu.statFuBusy::FloatCmp                     0      0.00%      2.36% # attempts to use FU when none available (Count)
system.cpu.statFuBusy::FloatCvt                     0      0.00%      2.36% # attempts to use FU when none available (Count)
system.cpu.statFuBusy::FloatMult                    0      0.00%      2.36% # attempts to use FU when none available (Count)
system.cpu.statFuBusy::FloatMultAcc                 0      0.00%      2.36% # attempts to use FU when none available (Count)
system.cpu.statFuBusy::FloatDiv                     0      0.00%      2.36% # attempts to use FU when none available (Count)
system.cpu.statFuBusy::FloatMisc                    0      0.00%      2.36% # attempts to use FU when none available (Count)
system.cpu.statFuBusy::FloatSqrt                    0      0.00%      2.36% # attempts to use FU when none available (Count)
system.cpu.statFuBusy::SimdAdd                      0      0.00%      2.36% # attempts to use FU when none available (Count)
system.cpu.statFuBusy::SimdAddAcc                   0      0.00%      2.36% # attempts to use FU when none available (Count)
system.cpu.statFuBusy::SimdAlu                      0      0.00%      2.36% # attempts to use FU when none available (Count)
system.cpu.statFuBusy::SimdCmp                      0      0.00%      2.36% # attempts to use FU when none available (Count)
system.cpu.statFuBusy::SimdCvt                      0      0.00%      2.36% # attempts to use FU when none available (Count)
system.cpu.statFuBusy::SimdMisc                     0      0.00%      2.36% # attempts to use FU when none available (Count)
system.cpu.statFuBusy::SimdMult                     0      0.00%      2.36% # attempts to use FU when none available (Count)
system.cpu.statFuBusy::SimdMultAcc                  0      0.00%      2.36% # attempts to use FU when none available (Count)
system.cpu.statFuBusy::SimdShift                    0      0.00%      2.36% # attempts to use FU when none available (Count)
system.cpu.statFuBusy::SimdShiftAcc                 0      0.00%      2.36% # attempts to use FU when none available (Count)
system.cpu.statFuBusy::SimdDiv                      0      0.00%      2.36% # attempts to use FU when none available (Count)
system.cpu.statFuBusy::SimdSqrt                     0      0.00%      2.36% # attempts to use FU when none available (Count)
system.cpu.statFuBusy::SimdFloatAdd                 0      0.00%      2.36% # attempts to use FU when none available (Count)
system.cpu.statFuBusy::SimdFloatAlu                 0      0.00%      2.36% # attempts to use FU when none available (Count)
system.cpu.statFuBusy::SimdFloatCmp                 0      0.00%      2.36% # attempts to use FU when none available (Count)
system.cpu.statFuBusy::SimdFloatCvt                 0      0.00%      2.36% # attempts to use FU when none available (Count)
system.cpu.statFuBusy::SimdFloatDiv                 0      0.00%      2.36% # attempts to use FU when none available (Count)
system.cpu.statFuBusy::SimdFloatMisc                0      0.00%      2.36% # attempts to use FU when none available (Count)
system.cpu.statFuBusy::SimdFloatMult                0      0.00%      2.36% # attempts to use FU when none available (Count)
system.cpu.statFuBusy::SimdFloatMultAcc             0      0.00%      2.36% # attempts to use FU when none available (Count)
system.cpu.statFuBusy::SimdFloatSqrt                0      0.00%      2.36% # attempts to use FU when none available (Count)
system.cpu.statFuBusy::SimdReduceAdd                0      0.00%      2.36% # attempts to use FU when none available (Count)
system.cpu.statFuBusy::SimdReduceAlu                0      0.00%      2.36% # attempts to use FU when none available (Count)
system.cpu.statFuBusy::SimdReduceCmp                0      0.00%      2.36% # attempts to use FU when none available (Count)
system.cpu.statFuBusy::SimdFloatReduceAdd            0      0.00%      2.36% # attempts to use FU when none available (Count)
system.cpu.statFuBusy::SimdFloatReduceCmp            0      0.00%      2.36% # attempts to use FU when none available (Count)
system.cpu.statFuBusy::SimdAes                      0      0.00%      2.36% # attempts to use FU when none available (Count)
system.cpu.statFuBusy::SimdAesMix                   0      0.00%      2.36% # attempts to use FU when none available (Count)
system.cpu.statFuBusy::SimdSha1Hash                 0      0.00%      2.36% # attempts to use FU when none available (Count)
system.cpu.statFuBusy::SimdSha1Hash2                0      0.00%      2.36% # attempts to use FU when none available (Count)
system.cpu.statFuBusy::SimdSha256Hash               0      0.00%      2.36% # attempts to use FU when none available (Count)
system.cpu.statFuBusy::SimdSha256Hash2              0      0.00%      2.36% # attempts to use FU when none available (Count)
system.cpu.statFuBusy::SimdShaSigma2                0      0.00%      2.36% # attempts to use FU when none available (Count)
system.cpu.statFuBusy::SimdShaSigma3                0      0.00%      2.36% # attempts to use FU when none available (Count)
system.cpu.statFuBusy::SimdPredAlu                  0      0.00%      2.36% # attempts to use FU when none available (Count)
system.cpu.statFuBusy::MemRead               34937434     71.92%     74.28% # attempts to use FU when none available (Count)
system.cpu.statFuBusy::MemWrite              12493888     25.72%    100.00% # attempts to use FU when none available (Count)
system.cpu.statFuBusy::FloatMemRead                 0      0.00%    100.00% # attempts to use FU when none available (Count)
system.cpu.statFuBusy::FloatMemWrite                0      0.00%    100.00% # attempts to use FU when none available (Count)
system.cpu.statFuBusy::IprAccess                    0      0.00%    100.00% # attempts to use FU when none available (Count)
system.cpu.statFuBusy::InstPrefetch                 0      0.00%    100.00% # attempts to use FU when none available (Count)
system.cpu.statIssuedInstType_0::No_OpClass            8      0.00%      0.00% # Number of instructions issued per FU type, per thread (Count)
system.cpu.statIssuedInstType_0::IntAlu     827534748     58.23%     58.23% # Number of instructions issued per FU type, per thread (Count)
system.cpu.statIssuedInstType_0::IntMult      2714866      0.19%     58.42% # Number of instructions issued per FU type, per thread (Count)
system.cpu.statIssuedInstType_0::IntDiv             0      0.00%     58.42% # Number of instructions issued per FU type, per thread (Count)
system.cpu.statIssuedInstType_0::FloatAdd            0      0.00%     58.42% # Number of instructions issued per FU type, per thread (Count)
system.cpu.statIssuedInstType_0::FloatCmp            0      0.00%     58.42% # Number of instructions issued per FU type, per thread (Count)
system.cpu.statIssuedInstType_0::FloatCvt            0      0.00%     58.42% # Number of instructions issued per FU type, per thread (Count)
system.cpu.statIssuedInstType_0::FloatMult            0      0.00%     58.42% # Number of instructions issued per FU type, per thread (Count)
system.cpu.statIssuedInstType_0::FloatMultAcc            0      0.00%     58.42% # Number of instructions issued per FU type, per thread (Count)
system.cpu.statIssuedInstType_0::FloatDiv            0      0.00%     58.42% # Number of instructions issued per FU type, per thread (Count)
system.cpu.statIssuedInstType_0::FloatMisc            0      0.00%     58.42% # Number of instructions issued per FU type, per thread (Count)
system.cpu.statIssuedInstType_0::FloatSqrt            0      0.00%     58.42% # Number of instructions issued per FU type, per thread (Count)
system.cpu.statIssuedInstType_0::SimdAdd            0      0.00%     58.42% # Number of instructions issued per FU type, per thread (Count)
system.cpu.statIssuedInstType_0::SimdAddAcc            0      0.00%     58.42% # Number of instructions issued per FU type, per thread (Count)
system.cpu.statIssuedInstType_0::SimdAlu            0      0.00%     58.42% # Number of instructions issued per FU type, per thread (Count)
system.cpu.statIssuedInstType_0::SimdCmp            0      0.00%     58.42% # Number of instructions issued per FU type, per thread (Count)
system.cpu.statIssuedInstType_0::SimdCvt            0      0.00%     58.42% # Number of instructions issued per FU type, per thread (Count)
system.cpu.statIssuedInstType_0::SimdMisc            0      0.00%     58.42% # Number of instructions issued per FU type, per thread (Count)
system.cpu.statIssuedInstType_0::SimdMult            0      0.00%     58.42% # Number of instructions issued per FU type, per thread (Count)
system.cpu.statIssuedInstType_0::SimdMultAcc            0      0.00%     58.42% # Number of instructions issued per FU type, per thread (Count)
system.cpu.statIssuedInstType_0::SimdShift            0      0.00%     58.42% # Number of instructions issued per FU type, per thread (Count)
system.cpu.statIssuedInstType_0::SimdShiftAcc            0      0.00%     58.42% # Number of instructions issued per FU type, per thread (Count)
system.cpu.statIssuedInstType_0::SimdDiv            0      0.00%     58.42% # Number of instructions issued per FU type, per thread (Count)
system.cpu.statIssuedInstType_0::SimdSqrt            0      0.00%     58.42% # Number of instructions issued per FU type, per thread (Count)
system.cpu.statIssuedInstType_0::SimdFloatAdd            0      0.00%     58.42% # Number of instructions issued per FU type, per thread (Count)
system.cpu.statIssuedInstType_0::SimdFloatAlu            0      0.00%     58.42% # Number of instructions issued per FU type, per thread (Count)
system.cpu.statIssuedInstType_0::SimdFloatCmp            0      0.00%     58.42% # Number of instructions issued per FU type, per thread (Count)
system.cpu.statIssuedInstType_0::SimdFloatCvt            0      0.00%     58.42% # Number of instructions issued per FU type, per thread (Count)
system.cpu.statIssuedInstType_0::SimdFloatDiv            0      0.00%     58.42% # Number of instructions issued per FU type, per thread (Count)
system.cpu.statIssuedInstType_0::SimdFloatMisc            3      0.00%     58.42% # Number of instructions issued per FU type, per thread (Count)
system.cpu.statIssuedInstType_0::SimdFloatMult            0      0.00%     58.42% # Number of instructions issued per FU type, per thread (Count)
system.cpu.statIssuedInstType_0::SimdFloatMultAcc            0      0.00%     58.42% # Number of instructions issued per FU type, per thread (Count)
system.cpu.statIssuedInstType_0::SimdFloatSqrt            0      0.00%     58.42% # Number of instructions issued per FU type, per thread (Count)
system.cpu.statIssuedInstType_0::SimdReduceAdd            0      0.00%     58.42% # Number of instructions issued per FU type, per thread (Count)
system.cpu.statIssuedInstType_0::SimdReduceAlu            0      0.00%     58.42% # Number of instructions issued per FU type, per thread (Count)
system.cpu.statIssuedInstType_0::SimdReduceCmp            0      0.00%     58.42% # Number of instructions issued per FU type, per thread (Count)
system.cpu.statIssuedInstType_0::SimdFloatReduceAdd            0      0.00%     58.42% # Number of instructions issued per FU type, per thread (Count)
system.cpu.statIssuedInstType_0::SimdFloatReduceCmp            0      0.00%     58.42% # Number of instructions issued per FU type, per thread (Count)
system.cpu.statIssuedInstType_0::SimdAes            0      0.00%     58.42% # Number of instructions issued per FU type, per thread (Count)
system.cpu.statIssuedInstType_0::SimdAesMix            0      0.00%     58.42% # Number of instructions issued per FU type, per thread (Count)
system.cpu.statIssuedInstType_0::SimdSha1Hash            0      0.00%     58.42% # Number of instructions issued per FU type, per thread (Count)
system.cpu.statIssuedInstType_0::SimdSha1Hash2            0      0.00%     58.42% # Number of instructions issued per FU type, per thread (Count)
system.cpu.statIssuedInstType_0::SimdSha256Hash            0      0.00%     58.42% # Number of instructions issued per FU type, per thread (Count)
system.cpu.statIssuedInstType_0::SimdSha256Hash2            0      0.00%     58.42% # Number of instructions issued per FU type, per thread (Count)
system.cpu.statIssuedInstType_0::SimdShaSigma2            0      0.00%     58.42% # Number of instructions issued per FU type, per thread (Count)
system.cpu.statIssuedInstType_0::SimdShaSigma3            0      0.00%     58.42% # Number of instructions issued per FU type, per thread (Count)
system.cpu.statIssuedInstType_0::SimdPredAlu            0      0.00%     58.42% # Number of instructions issued per FU type, per thread (Count)
system.cpu.statIssuedInstType_0::MemRead    459220221     32.31%     90.73% # Number of instructions issued per FU type, per thread (Count)
system.cpu.statIssuedInstType_0::MemWrite    131752835      9.27%    100.00% # Number of instructions issued per FU type, per thread (Count)
system.cpu.statIssuedInstType_0::FloatMemRead            0      0.00%    100.00% # Number of instructions issued per FU type, per thread (Count)
system.cpu.statIssuedInstType_0::FloatMemWrite            0      0.00%    100.00% # Number of instructions issued per FU type, per thread (Count)
system.cpu.statIssuedInstType_0::IprAccess            0      0.00%    100.00% # Number of instructions issued per FU type, per thread (Count)
system.cpu.statIssuedInstType_0::InstPrefetch            0      0.00%    100.00% # Number of instructions issued per FU type, per thread (Count)
system.cpu.statIssuedInstType_0::total     1421222681                       # Number of instructions issued per FU type, per thread (Count)
system.cpu.issueRate                         0.397134                       # Inst issue rate ((Count/Cycle))
system.cpu.fuBusy                            48576315                       # FU busy when requested (Count)
system.cpu.fuBusyRate                        0.034179                       # FU busy rate (busy events/executed inst) ((Count/Count))
system.cpu.intInstQueueReads               6480337565                       # Number of integer instruction queue reads (Count)
system.cpu.intInstQueueWrites              1769451300                       # Number of integer instruction queue writes (Count)
system.cpu.intInstQueueWakeupAccesses      1240641195                       # Number of integer instruction queue wakeup accesses (Count)
system.cpu.fpInstQueueReads                         0                       # Number of floating instruction queue reads (Count)
system.cpu.fpInstQueueWrites                        0                       # Number of floating instruction queue writes (Count)
system.cpu.fpInstQueueWakeupAccesses                0                       # Number of floating instruction queue wakeup accesses (Count)
system.cpu.vecInstQueueReads                        0                       # Number of vector instruction queue reads (Count)
system.cpu.vecInstQueueWrites                       0                       # Number of vector instruction queue writes (Count)
system.cpu.vecInstQueueWakeupAccesses               0                       # Number of vector instruction queue wakeup accesses (Count)
system.cpu.intAluAccesses                  1469798988                       # Number of integer alu accesses (Count)
system.cpu.fpAluAccesses                            0                       # Number of floating point alu accesses (Count)
system.cpu.vecAluAccesses                           0                       # Number of vector alu accesses (Count)
system.cpu.numInsts                        1408977849                       # Number of executed instructions (Count)
system.cpu.numLoadInsts                     454397931                       # Number of load instructions executed (Count)
system.cpu.numSquashedInsts                  12244832                       # Number of squashed instructions skipped in execute (Count)
system.cpu.numSwp                                   0                       # Number of swp insts executed (Count)
system.cpu.numNop                                  31                       # Number of nop insts executed (Count)
system.cpu.numRefs                          584424431                       # Number of memory reference insts executed (Count)
system.cpu.numBranches                      268937457                       # Number of branches executed (Count)
system.cpu.numStoreInsts                    130026500                       # Number of stores executed (Count)
system.cpu.numRate                           0.393712                       # Inst execution rate ((Count/Cycle))
system.cpu.timesIdled                             409                       # Number of times that the entire CPU went into an idle state and unscheduled itself (Count)
system.cpu.idleCycles                           72444                       # Total number of cycles that the CPU has spent unscheduled due to idling (Cycle)
system.cpu.committedInsts                  1000000000                       # Number of Instructions Simulated (Count)
system.cpu.committedOps                    1084388561                       # Number of Ops (including micro ops) Simulated (Count)
system.cpu.cpi                               3.578700                       # CPI: Cycles Per Instruction ((Cycle/Count))
system.cpu.totalCpi                          3.578700                       # CPI: Total CPI of All Threads ((Cycle/Count))
system.cpu.ipc                               0.279431                       # IPC: Instructions Per Cycle ((Count/Cycle))
system.cpu.totalIpc                          0.279431                       # IPC: Total IPC of All Threads ((Count/Cycle))
system.cpu.intRegfileReads                 1436088131                       # Number of integer regfile reads (Count)
system.cpu.intRegfileWrites                 651894963                       # Number of integer regfile writes (Count)
system.cpu.vecRegfileReads                         32                       # number of vector regfile reads (Count)
system.cpu.ccRegfileReads                  5044889461                       # number of cc regfile reads (Count)
system.cpu.ccRegfileWrites                  837655571                       # number of cc regfile writes (Count)
system.cpu.miscRegfileReads                 429799500                       # number of misc regfile reads (Count)
system.cpu.miscRegfileWrites                  5052022                       # number of misc regfile writes (Count)
system.cpu.MemDepUnit__0.insertedLoads      347619374                       # Number of loads inserted to the mem dependence unit. (Count)
system.cpu.MemDepUnit__0.insertedStores     143779664                       # Number of stores inserted to the mem dependence unit. (Count)
system.cpu.MemDepUnit__0.conflictingLoads     47652270                       # Number of conflicting loads. (Count)
system.cpu.MemDepUnit__0.conflictingStores     33363773                       # Number of conflicting stores. (Count)
system.cpu.MemDepUnit__1.insertedLoads              0                       # Number of loads inserted to the mem dependence unit. (Count)
system.cpu.MemDepUnit__1.insertedStores             0                       # Number of stores inserted to the mem dependence unit. (Count)
system.cpu.MemDepUnit__1.conflictingLoads            0                       # Number of conflicting loads. (Count)
system.cpu.MemDepUnit__1.conflictingStores            0                       # Number of conflicting stores. (Count)
system.cpu.MemDepUnit__2.insertedLoads              0                       # Number of loads inserted to the mem dependence unit. (Count)
system.cpu.MemDepUnit__2.insertedStores             0                       # Number of stores inserted to the mem dependence unit. (Count)
system.cpu.MemDepUnit__2.conflictingLoads            0                       # Number of conflicting loads. (Count)
system.cpu.MemDepUnit__2.conflictingStores            0                       # Number of conflicting stores. (Count)
system.cpu.MemDepUnit__3.insertedLoads              0                       # Number of loads inserted to the mem dependence unit. (Count)
system.cpu.MemDepUnit__3.insertedStores             0                       # Number of stores inserted to the mem dependence unit. (Count)
system.cpu.MemDepUnit__3.conflictingLoads            0                       # Number of conflicting loads. (Count)
system.cpu.MemDepUnit__3.conflictingStores            0                       # Number of conflicting stores. (Count)
system.cpu.branchPred.lookups               355422164                       # Number of BP lookups (Count)
system.cpu.branchPred.condPredicted         300518987                       # Number of conditional branches predicted (Count)
system.cpu.branchPred.condIncorrect          10407475                       # Number of conditional branches incorrect (Count)
system.cpu.branchPred.BTBLookups            153030130                       # Number of BTB lookups (Count)
system.cpu.branchPred.BTBHits               149339877                       # Number of BTB hits (Count)
system.cpu.branchPred.BTBHitRatio            0.975885                       # BTB Hit Ratio (Ratio)
system.cpu.branchPred.RASUsed                10722199                       # Number of times the RAS was used to get a target. (Count)
system.cpu.branchPred.RASIncorrect                 68                       # Number of incorrect RAS predictions. (Count)
system.cpu.branchPred.indirectLookups         2551688                       # Number of indirect predictor lookups. (Count)
system.cpu.branchPred.indirectHits            1338518                       # Number of indirect target hits. (Count)
system.cpu.branchPred.indirectMisses          1213170                       # Number of indirect misses. (Count)
system.cpu.branchPred.indirectMispredicted         9087                       # Number of mispredicted indirect branches. (Count)
system.cpu.commit.commitSquashedInsts       343210492                       # The number of squashed insts skipped by commit (Count)
system.cpu.commit.commitNonSpecStalls         3789440                       # The number of times commit has been forced to stall to communicate backwards (Count)
system.cpu.commit.branchMispredicts           8347735                       # The number of times a branch was mispredicted (Count)
system.cpu.commit.numCommittedDist::samples   3528338314                       # Number of insts commited each cycle (Count)
system.cpu.commit.numCommittedDist::mean     0.307337                       # Number of insts commited each cycle (Count)
system.cpu.commit.numCommittedDist::stdev     1.231148                       # Number of insts commited each cycle (Count)
system.cpu.commit.numCommittedDist::underflows            0      0.00%      0.00% # Number of insts commited each cycle (Count)
system.cpu.commit.numCommittedDist::0      3172369802     89.91%     89.91% # Number of insts commited each cycle (Count)
system.cpu.commit.numCommittedDist::1       160129468      4.54%     94.45% # Number of insts commited each cycle (Count)
system.cpu.commit.numCommittedDist::2        60148271      1.70%     96.15% # Number of insts commited each cycle (Count)
system.cpu.commit.numCommittedDist::3        21634124      0.61%     96.77% # Number of insts commited each cycle (Count)
system.cpu.commit.numCommittedDist::4        21062448      0.60%     97.36% # Number of insts commited each cycle (Count)
system.cpu.commit.numCommittedDist::5        19554485      0.55%     97.92% # Number of insts commited each cycle (Count)
system.cpu.commit.numCommittedDist::6         8514473      0.24%     98.16% # Number of insts commited each cycle (Count)
system.cpu.commit.numCommittedDist::7        13450819      0.38%     98.54% # Number of insts commited each cycle (Count)
system.cpu.commit.numCommittedDist::8        51474424      1.46%    100.00% # Number of insts commited each cycle (Count)
system.cpu.commit.numCommittedDist::overflows            0      0.00%    100.00% # Number of insts commited each cycle (Count)
system.cpu.commit.numCommittedDist::min_value            0                       # Number of insts commited each cycle (Count)
system.cpu.commit.numCommittedDist::max_value            8                       # Number of insts commited each cycle (Count)
system.cpu.commit.numCommittedDist::total   3528338314                       # Number of insts commited each cycle (Count)
system.cpu.commit.instsCommitted           1000000001                       # Number of instructions committed (Count)
system.cpu.commit.opsCommitted             1084388562                       # Number of ops (including micro ops) committed (Count)
system.cpu.commit.memRefs                   371594264                       # Number of memory references committed (Count)
system.cpu.commit.loads                     257232843                       # Number of loads committed (Count)
system.cpu.commit.amos                              0                       # Number of atomic instructions committed (Count)
system.cpu.commit.membars                     2526011                       # Number of memory barriers committed (Count)
system.cpu.commit.branches                  234516986                       # Number of branches committed (Count)
system.cpu.commit.vectorInstructions                0                       # Number of committed Vector instructions. (Count)
system.cpu.commit.floating                          0                       # Number of committed floating point instructions. (Count)
system.cpu.commit.integer                   857333723                       # Number of committed integer instructions. (Count)
system.cpu.commit.functionCalls               6817153                       # Number of function calls committed. (Count)
system.cpu.commit.committedInstType_0::No_OpClass            0      0.00%      0.00% # Class of committed instruction (Count)
system.cpu.commit.committedInstType_0::IntAlu    710093877     65.48%     65.48% # Class of committed instruction (Count)
system.cpu.commit.committedInstType_0::IntMult      2700418      0.25%     65.73% # Class of committed instruction (Count)
system.cpu.commit.committedInstType_0::IntDiv            0      0.00%     65.73% # Class of committed instruction (Count)
system.cpu.commit.committedInstType_0::FloatAdd            0      0.00%     65.73% # Class of committed instruction (Count)
system.cpu.commit.committedInstType_0::FloatCmp            0      0.00%     65.73% # Class of committed instruction (Count)
system.cpu.commit.committedInstType_0::FloatCvt            0      0.00%     65.73% # Class of committed instruction (Count)
system.cpu.commit.committedInstType_0::FloatMult            0      0.00%     65.73% # Class of committed instruction (Count)
system.cpu.commit.committedInstType_0::FloatMultAcc            0      0.00%     65.73% # Class of committed instruction (Count)
system.cpu.commit.committedInstType_0::FloatDiv            0      0.00%     65.73% # Class of committed instruction (Count)
system.cpu.commit.committedInstType_0::FloatMisc            0      0.00%     65.73% # Class of committed instruction (Count)
system.cpu.commit.committedInstType_0::FloatSqrt            0      0.00%     65.73% # Class of committed instruction (Count)
system.cpu.commit.committedInstType_0::SimdAdd            0      0.00%     65.73% # Class of committed instruction (Count)
system.cpu.commit.committedInstType_0::SimdAddAcc            0      0.00%     65.73% # Class of committed instruction (Count)
system.cpu.commit.committedInstType_0::SimdAlu            0      0.00%     65.73% # Class of committed instruction (Count)
system.cpu.commit.committedInstType_0::SimdCmp            0      0.00%     65.73% # Class of committed instruction (Count)
system.cpu.commit.committedInstType_0::SimdCvt            0      0.00%     65.73% # Class of committed instruction (Count)
system.cpu.commit.committedInstType_0::SimdMisc            0      0.00%     65.73% # Class of committed instruction (Count)
system.cpu.commit.committedInstType_0::SimdMult            0      0.00%     65.73% # Class of committed instruction (Count)
system.cpu.commit.committedInstType_0::SimdMultAcc            0      0.00%     65.73% # Class of committed instruction (Count)
system.cpu.commit.committedInstType_0::SimdShift            0      0.00%     65.73% # Class of committed instruction (Count)
system.cpu.commit.committedInstType_0::SimdShiftAcc            0      0.00%     65.73% # Class of committed instruction (Count)
system.cpu.commit.committedInstType_0::SimdDiv            0      0.00%     65.73% # Class of committed instruction (Count)
system.cpu.commit.committedInstType_0::SimdSqrt            0      0.00%     65.73% # Class of committed instruction (Count)
system.cpu.commit.committedInstType_0::SimdFloatAdd            0      0.00%     65.73% # Class of committed instruction (Count)
system.cpu.commit.committedInstType_0::SimdFloatAlu            0      0.00%     65.73% # Class of committed instruction (Count)
system.cpu.commit.committedInstType_0::SimdFloatCmp            0      0.00%     65.73% # Class of committed instruction (Count)
system.cpu.commit.committedInstType_0::SimdFloatCvt            0      0.00%     65.73% # Class of committed instruction (Count)
system.cpu.commit.committedInstType_0::SimdFloatDiv            0      0.00%     65.73% # Class of committed instruction (Count)
system.cpu.commit.committedInstType_0::SimdFloatMisc            3      0.00%     65.73% # Class of committed instruction (Count)
system.cpu.commit.committedInstType_0::SimdFloatMult            0      0.00%     65.73% # Class of committed instruction (Count)
system.cpu.commit.committedInstType_0::SimdFloatMultAcc            0      0.00%     65.73% # Class of committed instruction (Count)
system.cpu.commit.committedInstType_0::SimdFloatSqrt            0      0.00%     65.73% # Class of committed instruction (Count)
system.cpu.commit.committedInstType_0::SimdReduceAdd            0      0.00%     65.73% # Class of committed instruction (Count)
system.cpu.commit.committedInstType_0::SimdReduceAlu            0      0.00%     65.73% # Class of committed instruction (Count)
system.cpu.commit.committedInstType_0::SimdReduceCmp            0      0.00%     65.73% # Class of committed instruction (Count)
system.cpu.commit.committedInstType_0::SimdFloatReduceAdd            0      0.00%     65.73% # Class of committed instruction (Count)
system.cpu.commit.committedInstType_0::SimdFloatReduceCmp            0      0.00%     65.73% # Class of committed instruction (Count)
system.cpu.commit.committedInstType_0::SimdAes            0      0.00%     65.73% # Class of committed instruction (Count)
system.cpu.commit.committedInstType_0::SimdAesMix            0      0.00%     65.73% # Class of committed instruction (Count)
system.cpu.commit.committedInstType_0::SimdSha1Hash            0      0.00%     65.73% # Class of committed instruction (Count)
system.cpu.commit.committedInstType_0::SimdSha1Hash2            0      0.00%     65.73% # Class of committed instruction (Count)
system.cpu.commit.committedInstType_0::SimdSha256Hash            0      0.00%     65.73% # Class of committed instruction (Count)
system.cpu.commit.committedInstType_0::SimdSha256Hash2            0      0.00%     65.73% # Class of committed instruction (Count)
system.cpu.commit.committedInstType_0::SimdShaSigma2            0      0.00%     65.73% # Class of committed instruction (Count)
system.cpu.commit.committedInstType_0::SimdShaSigma3            0      0.00%     65.73% # Class of committed instruction (Count)
system.cpu.commit.committedInstType_0::SimdPredAlu            0      0.00%     65.73% # Class of committed instruction (Count)
system.cpu.commit.committedInstType_0::MemRead    257232843     23.72%     89.45% # Class of committed instruction (Count)
system.cpu.commit.committedInstType_0::MemWrite    114361421     10.55%    100.00% # Class of committed instruction (Count)
system.cpu.commit.committedInstType_0::FloatMemRead            0      0.00%    100.00% # Class of committed instruction (Count)
system.cpu.commit.committedInstType_0::FloatMemWrite            0      0.00%    100.00% # Class of committed instruction (Count)
system.cpu.commit.committedInstType_0::IprAccess            0      0.00%    100.00% # Class of committed instruction (Count)
system.cpu.commit.committedInstType_0::InstPrefetch            0      0.00%    100.00% # Class of committed instruction (Count)
system.cpu.commit.committedInstType_0::total   1084388562                       # Class of committed instruction (Count)
system.cpu.commit.commitEligibleSamples      51474424                       # number cycles where commit BW limit reached (Cycle)
system.cpu.dcache.demandHits::cpu.data      329077849                       # number of demand (read+write) hits (Count)
system.cpu.dcache.demandHits::total         329077849                       # number of demand (read+write) hits (Count)
system.cpu.dcache.overallHits::cpu.data     329298219                       # number of overall hits (Count)
system.cpu.dcache.overallHits::total        329298219                       # number of overall hits (Count)
system.cpu.dcache.demandMisses::cpu.data     70361596                       # number of demand (read+write) misses (Count)
system.cpu.dcache.demandMisses::total        70361596                       # number of demand (read+write) misses (Count)
system.cpu.dcache.overallMisses::cpu.data     70363186                       # number of overall misses (Count)
system.cpu.dcache.overallMisses::total       70363186                       # number of overall misses (Count)
system.cpu.dcache.demandMissLatency::cpu.data 3223175609037                       # number of demand (read+write) miss ticks (Tick)
system.cpu.dcache.demandMissLatency::total 3223175609037                       # number of demand (read+write) miss ticks (Tick)
system.cpu.dcache.overallMissLatency::cpu.data 3223175609037                       # number of overall miss ticks (Tick)
system.cpu.dcache.overallMissLatency::total 3223175609037                       # number of overall miss ticks (Tick)
system.cpu.dcache.demandAccesses::cpu.data    399439445                       # number of demand (read+write) accesses (Count)
system.cpu.dcache.demandAccesses::total     399439445                       # number of demand (read+write) accesses (Count)
system.cpu.dcache.overallAccesses::cpu.data    399661405                       # number of overall (read+write) accesses (Count)
system.cpu.dcache.overallAccesses::total    399661405                       # number of overall (read+write) accesses (Count)
system.cpu.dcache.demandMissRate::cpu.data     0.176151                       # miss rate for demand accesses (Ratio)
system.cpu.dcache.demandMissRate::total      0.176151                       # miss rate for demand accesses (Ratio)
system.cpu.dcache.overallMissRate::cpu.data     0.176057                       # miss rate for overall accesses (Ratio)
system.cpu.dcache.overallMissRate::total     0.176057                       # miss rate for overall accesses (Ratio)
system.cpu.dcache.demandAvgMissLatency::cpu.data 45808.733631                       # average overall miss latency in ticks ((Tick/Count))
system.cpu.dcache.demandAvgMissLatency::total 45808.733631                       # average overall miss latency in ticks ((Tick/Count))
system.cpu.dcache.overallAvgMissLatency::cpu.data 45807.698489                       # average overall miss latency ((Tick/Count))
system.cpu.dcache.overallAvgMissLatency::total 45807.698489                       # average overall miss latency ((Tick/Count))
system.cpu.dcache.blockedCycles::no_mshrs    633019499                       # number of cycles access was blocked (Cycle)
system.cpu.dcache.blockedCycles::no_targets       276047                       # number of cycles access was blocked (Cycle)
system.cpu.dcache.blockedCauses::no_mshrs     17104617                       # number of times access was blocked (Count)
system.cpu.dcache.blockedCauses::no_targets         5617                       # number of times access was blocked (Count)
system.cpu.dcache.avgBlocked::no_mshrs      37.008692                       # average number of cycles each access was blocked ((Cycle/Count))
system.cpu.dcache.avgBlocked::no_targets    49.144917                       # average number of cycles each access was blocked ((Cycle/Count))
system.cpu.dcache.writebacks::writebacks     10003053                       # number of writebacks (Count)
system.cpu.dcache.writebacks::total          10003053                       # number of writebacks (Count)
system.cpu.dcache.demandMshrHits::cpu.data     37844563                       # number of demand (read+write) MSHR hits (Count)
system.cpu.dcache.demandMshrHits::total      37844563                       # number of demand (read+write) MSHR hits (Count)
system.cpu.dcache.overallMshrHits::cpu.data     37844563                       # number of overall MSHR hits (Count)
system.cpu.dcache.overallMshrHits::total     37844563                       # number of overall MSHR hits (Count)
system.cpu.dcache.demandMshrMisses::cpu.data     32517033                       # number of demand (read+write) MSHR misses (Count)
system.cpu.dcache.demandMshrMisses::total     32517033                       # number of demand (read+write) MSHR misses (Count)
system.cpu.dcache.overallMshrMisses::cpu.data     32517329                       # number of overall MSHR misses (Count)
system.cpu.dcache.overallMshrMisses::total     32517329                       # number of overall MSHR misses (Count)
system.cpu.dcache.demandMshrMissLatency::cpu.data 1480257875428                       # number of demand (read+write) MSHR miss ticks (Tick)
system.cpu.dcache.demandMshrMissLatency::total 1480257875428                       # number of demand (read+write) MSHR miss ticks (Tick)
system.cpu.dcache.overallMshrMissLatency::cpu.data 1480261961242                       # number of overall MSHR miss ticks (Tick)
system.cpu.dcache.overallMshrMissLatency::total 1480261961242                       # number of overall MSHR miss ticks (Tick)
system.cpu.dcache.demandMshrMissRate::cpu.data     0.081407                       # mshr miss ratio for demand accesses (Ratio)
system.cpu.dcache.demandMshrMissRate::total     0.081407                       # mshr miss ratio for demand accesses (Ratio)
system.cpu.dcache.overallMshrMissRate::cpu.data     0.081362                       # mshr miss ratio for overall accesses (Ratio)
system.cpu.dcache.overallMshrMissRate::total     0.081362                       # mshr miss ratio for overall accesses (Ratio)
system.cpu.dcache.demandAvgMshrMissLatency::cpu.data 45522.538155                       # average overall mshr miss latency ((Tick/Count))
system.cpu.dcache.demandAvgMshrMissLatency::total 45522.538155                       # average overall mshr miss latency ((Tick/Count))
system.cpu.dcache.overallAvgMshrMissLatency::cpu.data 45522.249421                       # average overall mshr miss latency ((Tick/Count))
system.cpu.dcache.overallAvgMshrMissLatency::total 45522.249421                       # average overall mshr miss latency ((Tick/Count))
system.cpu.dcache.replacements               32516809                       # number of replacements (Count)
system.cpu.dcache.LoadLockedReq.hits::cpu.data      1263003                       # number of LoadLockedReq hits (Count)
system.cpu.dcache.LoadLockedReq.hits::total      1263003                       # number of LoadLockedReq hits (Count)
system.cpu.dcache.LoadLockedReq.misses::cpu.data            2                       # number of LoadLockedReq misses (Count)
system.cpu.dcache.LoadLockedReq.misses::total            2                       # number of LoadLockedReq misses (Count)
system.cpu.dcache.LoadLockedReq.missLatency::cpu.data       134274                       # number of LoadLockedReq miss ticks (Tick)
system.cpu.dcache.LoadLockedReq.missLatency::total       134274                       # number of LoadLockedReq miss ticks (Tick)
system.cpu.dcache.LoadLockedReq.accesses::cpu.data      1263005                       # number of LoadLockedReq accesses(hits+misses) (Count)
system.cpu.dcache.LoadLockedReq.accesses::total      1263005                       # number of LoadLockedReq accesses(hits+misses) (Count)
system.cpu.dcache.LoadLockedReq.missRate::cpu.data     0.000002                       # miss rate for LoadLockedReq accesses (Ratio)
system.cpu.dcache.LoadLockedReq.missRate::total     0.000002                       # miss rate for LoadLockedReq accesses (Ratio)
system.cpu.dcache.LoadLockedReq.avgMissLatency::cpu.data        67137                       # average LoadLockedReq miss latency ((Tick/Count))
system.cpu.dcache.LoadLockedReq.avgMissLatency::total        67137                       # average LoadLockedReq miss latency ((Tick/Count))
system.cpu.dcache.LoadLockedReq.mshrMisses::cpu.data            2                       # number of LoadLockedReq MSHR misses (Count)
system.cpu.dcache.LoadLockedReq.mshrMisses::total            2                       # number of LoadLockedReq MSHR misses (Count)
system.cpu.dcache.LoadLockedReq.mshrMissLatency::cpu.data       132786                       # number of LoadLockedReq MSHR miss ticks (Tick)
system.cpu.dcache.LoadLockedReq.mshrMissLatency::total       132786                       # number of LoadLockedReq MSHR miss ticks (Tick)
system.cpu.dcache.LoadLockedReq.mshrMissRate::cpu.data     0.000002                       # mshr miss rate for LoadLockedReq accesses (Ratio)
system.cpu.dcache.LoadLockedReq.mshrMissRate::total     0.000002                       # mshr miss rate for LoadLockedReq accesses (Ratio)
system.cpu.dcache.LoadLockedReq.avgMshrMissLatency::cpu.data        66393                       # average LoadLockedReq mshr miss latency ((Tick/Count))
system.cpu.dcache.LoadLockedReq.avgMshrMissLatency::total        66393                       # average LoadLockedReq mshr miss latency ((Tick/Count))
system.cpu.dcache.ReadReq.hits::cpu.data    221297718                       # number of ReadReq hits (Count)
system.cpu.dcache.ReadReq.hits::total       221297718                       # number of ReadReq hits (Count)
system.cpu.dcache.ReadReq.misses::cpu.data     67782692                       # number of ReadReq misses (Count)
system.cpu.dcache.ReadReq.misses::total      67782692                       # number of ReadReq misses (Count)
system.cpu.dcache.ReadReq.missLatency::cpu.data 3118625484290                       # number of ReadReq miss ticks (Tick)
system.cpu.dcache.ReadReq.missLatency::total 3118625484290                       # number of ReadReq miss ticks (Tick)
system.cpu.dcache.ReadReq.accesses::cpu.data    289080410                       # number of ReadReq accesses(hits+misses) (Count)
system.cpu.dcache.ReadReq.accesses::total    289080410                       # number of ReadReq accesses(hits+misses) (Count)
system.cpu.dcache.ReadReq.missRate::cpu.data     0.234477                       # miss rate for ReadReq accesses (Ratio)
system.cpu.dcache.ReadReq.missRate::total     0.234477                       # miss rate for ReadReq accesses (Ratio)
system.cpu.dcache.ReadReq.avgMissLatency::cpu.data 46009.171254                       # average ReadReq miss latency ((Tick/Count))
system.cpu.dcache.ReadReq.avgMissLatency::total 46009.171254                       # average ReadReq miss latency ((Tick/Count))
system.cpu.dcache.ReadReq.mshrHits::cpu.data     36054725                       # number of ReadReq MSHR hits (Count)
system.cpu.dcache.ReadReq.mshrHits::total     36054725                       # number of ReadReq MSHR hits (Count)
system.cpu.dcache.ReadReq.mshrMisses::cpu.data     31727967                       # number of ReadReq MSHR misses (Count)
system.cpu.dcache.ReadReq.mshrMisses::total     31727967                       # number of ReadReq MSHR misses (Count)
system.cpu.dcache.ReadReq.mshrMissLatency::cpu.data 1446516266032                       # number of ReadReq MSHR miss ticks (Tick)
system.cpu.dcache.ReadReq.mshrMissLatency::total 1446516266032                       # number of ReadReq MSHR miss ticks (Tick)
system.cpu.dcache.ReadReq.mshrMissRate::cpu.data     0.109755                       # mshr miss rate for ReadReq accesses (Ratio)
system.cpu.dcache.ReadReq.mshrMissRate::total     0.109755                       # mshr miss rate for ReadReq accesses (Ratio)
system.cpu.dcache.ReadReq.avgMshrMissLatency::cpu.data 45591.205577                       # average ReadReq mshr miss latency ((Tick/Count))
system.cpu.dcache.ReadReq.avgMshrMissLatency::total 45591.205577                       # average ReadReq mshr miss latency ((Tick/Count))
system.cpu.dcache.SoftPFReq.hits::cpu.data       220370                       # number of SoftPFReq hits (Count)
system.cpu.dcache.SoftPFReq.hits::total        220370                       # number of SoftPFReq hits (Count)
system.cpu.dcache.SoftPFReq.misses::cpu.data         1590                       # number of SoftPFReq misses (Count)
system.cpu.dcache.SoftPFReq.misses::total         1590                       # number of SoftPFReq misses (Count)
system.cpu.dcache.SoftPFReq.accesses::cpu.data       221960                       # number of SoftPFReq accesses(hits+misses) (Count)
system.cpu.dcache.SoftPFReq.accesses::total       221960                       # number of SoftPFReq accesses(hits+misses) (Count)
system.cpu.dcache.SoftPFReq.missRate::cpu.data     0.007163                       # miss rate for SoftPFReq accesses (Ratio)
system.cpu.dcache.SoftPFReq.missRate::total     0.007163                       # miss rate for SoftPFReq accesses (Ratio)
system.cpu.dcache.SoftPFReq.mshrMisses::cpu.data          296                       # number of SoftPFReq MSHR misses (Count)
system.cpu.dcache.SoftPFReq.mshrMisses::total          296                       # number of SoftPFReq MSHR misses (Count)
system.cpu.dcache.SoftPFReq.mshrMissLatency::cpu.data      4085814                       # number of SoftPFReq MSHR miss ticks (Tick)
system.cpu.dcache.SoftPFReq.mshrMissLatency::total      4085814                       # number of SoftPFReq MSHR miss ticks (Tick)
system.cpu.dcache.SoftPFReq.mshrMissRate::cpu.data     0.001334                       # mshr miss rate for SoftPFReq accesses (Ratio)
system.cpu.dcache.SoftPFReq.mshrMissRate::total     0.001334                       # mshr miss rate for SoftPFReq accesses (Ratio)
system.cpu.dcache.SoftPFReq.avgMshrMissLatency::cpu.data 13803.425676                       # average SoftPFReq mshr miss latency ((Tick/Count))
system.cpu.dcache.SoftPFReq.avgMshrMissLatency::total 13803.425676                       # average SoftPFReq mshr miss latency ((Tick/Count))
system.cpu.dcache.StoreCondReq.hits::cpu.data      1263005                       # number of StoreCondReq hits (Count)
system.cpu.dcache.StoreCondReq.hits::total      1263005                       # number of StoreCondReq hits (Count)
system.cpu.dcache.StoreCondReq.accesses::cpu.data      1263005                       # number of StoreCondReq accesses(hits+misses) (Count)
system.cpu.dcache.StoreCondReq.accesses::total      1263005                       # number of StoreCondReq accesses(hits+misses) (Count)
system.cpu.dcache.WriteReq.hits::cpu.data    107780131                       # number of WriteReq hits (Count)
system.cpu.dcache.WriteReq.hits::total      107780131                       # number of WriteReq hits (Count)
system.cpu.dcache.WriteReq.misses::cpu.data      2578904                       # number of WriteReq misses (Count)
system.cpu.dcache.WriteReq.misses::total      2578904                       # number of WriteReq misses (Count)
system.cpu.dcache.WriteReq.missLatency::cpu.data 104550124747                       # number of WriteReq miss ticks (Tick)
system.cpu.dcache.WriteReq.missLatency::total 104550124747                       # number of WriteReq miss ticks (Tick)
system.cpu.dcache.WriteReq.accesses::cpu.data    110359035                       # number of WriteReq accesses(hits+misses) (Count)
system.cpu.dcache.WriteReq.accesses::total    110359035                       # number of WriteReq accesses(hits+misses) (Count)
system.cpu.dcache.WriteReq.missRate::cpu.data     0.023368                       # miss rate for WriteReq accesses (Ratio)
system.cpu.dcache.WriteReq.missRate::total     0.023368                       # miss rate for WriteReq accesses (Ratio)
system.cpu.dcache.WriteReq.avgMissLatency::cpu.data 40540.526032                       # average WriteReq miss latency ((Tick/Count))
system.cpu.dcache.WriteReq.avgMissLatency::total 40540.526032                       # average WriteReq miss latency ((Tick/Count))
system.cpu.dcache.WriteReq.mshrHits::cpu.data      1789838                       # number of WriteReq MSHR hits (Count)
system.cpu.dcache.WriteReq.mshrHits::total      1789838                       # number of WriteReq MSHR hits (Count)
system.cpu.dcache.WriteReq.mshrMisses::cpu.data       789066                       # number of WriteReq MSHR misses (Count)
system.cpu.dcache.WriteReq.mshrMisses::total       789066                       # number of WriteReq MSHR misses (Count)
system.cpu.dcache.WriteReq.mshrMissLatency::cpu.data  33741609396                       # number of WriteReq MSHR miss ticks (Tick)
system.cpu.dcache.WriteReq.mshrMissLatency::total  33741609396                       # number of WriteReq MSHR miss ticks (Tick)
system.cpu.dcache.WriteReq.mshrMissRate::cpu.data     0.007150                       # mshr miss rate for WriteReq accesses (Ratio)
system.cpu.dcache.WriteReq.mshrMissRate::total     0.007150                       # mshr miss rate for WriteReq accesses (Ratio)
system.cpu.dcache.WriteReq.avgMshrMissLatency::cpu.data 42761.453916                       # average WriteReq mshr miss latency ((Tick/Count))
system.cpu.dcache.WriteReq.avgMshrMissLatency::total 42761.453916                       # average WriteReq mshr miss latency ((Tick/Count))
system.cpu.dcache.power_state.pwrStateResidencyTicks::UNDEFINED 994878731494                       # Cumulative time (in ticks) in various power states (Tick)
system.cpu.dcache.tags.tagsInUse           511.982133                       # Average ticks per tags in use ((Tick/Count))
system.cpu.dcache.tags.totalRefs            364341640                       # Total number of references to valid blocks. (Count)
system.cpu.dcache.tags.sampledRefs           32517321                       # Sample count of references to valid blocks. (Count)
system.cpu.dcache.tags.avgRefs              11.204540                       # Average number of references to valid blocks. ((Count/Count))
system.cpu.dcache.tags.warmupTick               97500                       # The tick when the warmup percentage was hit. (Tick)
system.cpu.dcache.tags.occupancies::cpu.data   511.982133                       # Average occupied blocks per tick, per requestor ((Count/Tick))
system.cpu.dcache.tags.avgOccs::cpu.data     0.999965                       # Average percentage of cache occupancy ((Ratio/Tick))
system.cpu.dcache.tags.avgOccs::total        0.999965                       # Average percentage of cache occupancy ((Ratio/Tick))
system.cpu.dcache.tags.occupanciesTaskId::1024          512                       # Occupied blocks per task id (Count)
system.cpu.dcache.tags.ageTaskId_1024::0          153                       # Occupied blocks per task id, per block age (Count)
system.cpu.dcache.tags.ageTaskId_1024::1          358                       # Occupied blocks per task id, per block age (Count)
system.cpu.dcache.tags.ageTaskId_1024::3            1                       # Occupied blocks per task id, per block age (Count)
system.cpu.dcache.tags.ratioOccsTaskId::1024            1                       # Ratio of occupied blocks and all blocks, per task id (Ratio)
system.cpu.dcache.tags.tagAccesses         1641266981                       # Number of tag accesses (Count)
system.cpu.dcache.tags.dataAccesses        1641266981                       # Number of data accesses (Count)
system.cpu.dcache.tags.power_state.pwrStateResidencyTicks::UNDEFINED 994878731494                       # Cumulative time (in ticks) in various power states (Tick)
system.cpu.decode.idleCycles                138648969                       # Number of cycles decode is idle (Cycle)
system.cpu.decode.blockedCycles            3180763132                       # Number of cycles decode is blocked (Cycle)
system.cpu.decode.runCycles                 206895395                       # Number of cycles decode is running (Cycle)
system.cpu.decode.unblockCycles              43106531                       # Number of cycles decode is unblocking (Cycle)
system.cpu.decode.squashCycles                9214003                       # Number of cycles decode is squashing (Cycle)
system.cpu.decode.branchResolved            140317742                       # Number of times decode resolved a branch (Count)
system.cpu.decode.branchMispred               2063966                       # Number of times decode detected a branch misprediction (Count)
system.cpu.decode.decodedInsts             1521600189                       # Number of instructions handled by decode (Count)
system.cpu.decode.squashedInsts               3620075                       # Number of squashed instructions handled by decode (Count)
system.cpu.fetch.icacheStallCycles          189436924                       # Number of cycles fetch is stalled on an Icache miss (Cycle)
system.cpu.fetch.insts                     1542013723                       # Number of instructions fetch has processed (Count)
system.cpu.fetch.branches                   355422164                       # Number of branches that fetch encountered (Count)
system.cpu.fetch.predictedBranches          161400594                       # Number of branches that fetch has predicted taken (Count)
system.cpu.fetch.cycles                    3377917164                       # Number of cycles fetch has run and was not squashing or blocked (Cycle)
system.cpu.fetch.squashCycles                22547498                       # Number of cycles fetch has spent squashing (Cycle)
system.cpu.fetch.miscStallCycles                   71                       # Number of cycles fetch has spent waiting on interrupts, or bad addresses, or out of MSHRs (Cycle)
system.cpu.fetch.pendingTrapStallCycles            51                       # Number of stall cycles due to pending traps (Cycle)
system.cpu.fetch.icacheWaitRetryStallCycles           71                       # Number of stall cycles due to full MSHR (Cycle)
system.cpu.fetch.cacheLines                 183899889                       # Number of cache lines fetched (Count)
system.cpu.fetch.icacheSquashes               3281444                       # Number of outstanding Icache misses that were squashed (Count)
system.cpu.fetch.nisnDist::samples         3578628030                       # Number of instructions fetched each cycle (Total) (Count)
system.cpu.fetch.nisnDist::mean              0.463616                       # Number of instructions fetched each cycle (Total) (Count)
system.cpu.fetch.nisnDist::stdev             1.654918                       # Number of instructions fetched each cycle (Total) (Count)
system.cpu.fetch.nisnDist::underflows               0      0.00%      0.00% # Number of instructions fetched each cycle (Total) (Count)
system.cpu.fetch.nisnDist::0               3258866315     91.06%     91.06% # Number of instructions fetched each cycle (Total) (Count)
system.cpu.fetch.nisnDist::1                 18531433      0.52%     91.58% # Number of instructions fetched each cycle (Total) (Count)
system.cpu.fetch.nisnDist::2                 47520258      1.33%     92.91% # Number of instructions fetched each cycle (Total) (Count)
system.cpu.fetch.nisnDist::3                 40634553      1.14%     94.05% # Number of instructions fetched each cycle (Total) (Count)
system.cpu.fetch.nisnDist::4                 29839502      0.83%     94.88% # Number of instructions fetched each cycle (Total) (Count)
system.cpu.fetch.nisnDist::5                 22691764      0.63%     95.51% # Number of instructions fetched each cycle (Total) (Count)
system.cpu.fetch.nisnDist::6                 39670071      1.11%     96.62% # Number of instructions fetched each cycle (Total) (Count)
system.cpu.fetch.nisnDist::7                 14196464      0.40%     97.02% # Number of instructions fetched each cycle (Total) (Count)
system.cpu.fetch.nisnDist::8                106677670      2.98%    100.00% # Number of instructions fetched each cycle (Total) (Count)
system.cpu.fetch.nisnDist::overflows                0      0.00%    100.00% # Number of instructions fetched each cycle (Total) (Count)
system.cpu.fetch.nisnDist::min_value                0                       # Number of instructions fetched each cycle (Total) (Count)
system.cpu.fetch.nisnDist::max_value                8                       # Number of instructions fetched each cycle (Total) (Count)
system.cpu.fetch.nisnDist::total           3578628030                       # Number of instructions fetched each cycle (Total) (Count)
system.cpu.fetch.branchRate                  0.099316                       # Number of branch fetches per cycle (Ratio)
system.cpu.fetch.rate                        0.430887                       # Number of inst fetches per cycle ((Count/Cycle))
system.cpu.icache.demandHits::cpu.inst      183899144                       # number of demand (read+write) hits (Count)
system.cpu.icache.demandHits::total         183899144                       # number of demand (read+write) hits (Count)
system.cpu.icache.overallHits::cpu.inst     183899144                       # number of overall hits (Count)
system.cpu.icache.overallHits::total        183899144                       # number of overall hits (Count)
system.cpu.icache.demandMisses::cpu.inst          744                       # number of demand (read+write) misses (Count)
system.cpu.icache.demandMisses::total             744                       # number of demand (read+write) misses (Count)
system.cpu.icache.overallMisses::cpu.inst          744                       # number of overall misses (Count)
system.cpu.icache.overallMisses::total            744                       # number of overall misses (Count)
system.cpu.icache.demandMissLatency::cpu.inst     51433985                       # number of demand (read+write) miss ticks (Tick)
system.cpu.icache.demandMissLatency::total     51433985                       # number of demand (read+write) miss ticks (Tick)
system.cpu.icache.overallMissLatency::cpu.inst     51433985                       # number of overall miss ticks (Tick)
system.cpu.icache.overallMissLatency::total     51433985                       # number of overall miss ticks (Tick)
system.cpu.icache.demandAccesses::cpu.inst    183899888                       # number of demand (read+write) accesses (Count)
system.cpu.icache.demandAccesses::total     183899888                       # number of demand (read+write) accesses (Count)
system.cpu.icache.overallAccesses::cpu.inst    183899888                       # number of overall (read+write) accesses (Count)
system.cpu.icache.overallAccesses::total    183899888                       # number of overall (read+write) accesses (Count)
system.cpu.icache.demandMissRate::cpu.inst     0.000004                       # miss rate for demand accesses (Ratio)
system.cpu.icache.demandMissRate::total      0.000004                       # miss rate for demand accesses (Ratio)
system.cpu.icache.overallMissRate::cpu.inst     0.000004                       # miss rate for overall accesses (Ratio)
system.cpu.icache.overallMissRate::total     0.000004                       # miss rate for overall accesses (Ratio)
system.cpu.icache.demandAvgMissLatency::cpu.inst 69131.700269                       # average overall miss latency in ticks ((Tick/Count))
system.cpu.icache.demandAvgMissLatency::total 69131.700269                       # average overall miss latency in ticks ((Tick/Count))
system.cpu.icache.overallAvgMissLatency::cpu.inst 69131.700269                       # average overall miss latency ((Tick/Count))
system.cpu.icache.overallAvgMissLatency::total 69131.700269                       # average overall miss latency ((Tick/Count))
system.cpu.icache.blockedCycles::no_mshrs         1880                       # number of cycles access was blocked (Cycle)
system.cpu.icache.blockedCycles::no_targets            0                       # number of cycles access was blocked (Cycle)
system.cpu.icache.blockedCauses::no_mshrs           15                       # number of times access was blocked (Count)
system.cpu.icache.blockedCauses::no_targets            0                       # number of times access was blocked (Count)
system.cpu.icache.avgBlocked::no_mshrs     125.333333                       # average number of cycles each access was blocked ((Cycle/Count))
system.cpu.icache.avgBlocked::no_targets          nan                       # average number of cycles each access was blocked ((Cycle/Count))
system.cpu.icache.demandMshrHits::cpu.inst          174                       # number of demand (read+write) MSHR hits (Count)
system.cpu.icache.demandMshrHits::total           174                       # number of demand (read+write) MSHR hits (Count)
system.cpu.icache.overallMshrHits::cpu.inst          174                       # number of overall MSHR hits (Count)
system.cpu.icache.overallMshrHits::total          174                       # number of overall MSHR hits (Count)
system.cpu.icache.demandMshrMisses::cpu.inst          570                       # number of demand (read+write) MSHR misses (Count)
system.cpu.icache.demandMshrMisses::total          570                       # number of demand (read+write) MSHR misses (Count)
system.cpu.icache.overallMshrMisses::cpu.inst          570                       # number of overall MSHR misses (Count)
system.cpu.icache.overallMshrMisses::total          570                       # number of overall MSHR misses (Count)
system.cpu.icache.demandMshrMissLatency::cpu.inst     40187347                       # number of demand (read+write) MSHR miss ticks (Tick)
system.cpu.icache.demandMshrMissLatency::total     40187347                       # number of demand (read+write) MSHR miss ticks (Tick)
system.cpu.icache.overallMshrMissLatency::cpu.inst     40187347                       # number of overall MSHR miss ticks (Tick)
system.cpu.icache.overallMshrMissLatency::total     40187347                       # number of overall MSHR miss ticks (Tick)
system.cpu.icache.demandMshrMissRate::cpu.inst     0.000003                       # mshr miss ratio for demand accesses (Ratio)
system.cpu.icache.demandMshrMissRate::total     0.000003                       # mshr miss ratio for demand accesses (Ratio)
system.cpu.icache.overallMshrMissRate::cpu.inst     0.000003                       # mshr miss ratio for overall accesses (Ratio)
system.cpu.icache.overallMshrMissRate::total     0.000003                       # mshr miss ratio for overall accesses (Ratio)
system.cpu.icache.demandAvgMshrMissLatency::cpu.inst 70504.117544                       # average overall mshr miss latency ((Tick/Count))
system.cpu.icache.demandAvgMshrMissLatency::total 70504.117544                       # average overall mshr miss latency ((Tick/Count))
system.cpu.icache.overallAvgMshrMissLatency::cpu.inst 70504.117544                       # average overall mshr miss latency ((Tick/Count))
system.cpu.icache.overallAvgMshrMissLatency::total 70504.117544                       # average overall mshr miss latency ((Tick/Count))
system.cpu.icache.replacements                    123                       # number of replacements (Count)
system.cpu.icache.ReadReq.hits::cpu.inst    183899144                       # number of ReadReq hits (Count)
system.cpu.icache.ReadReq.hits::total       183899144                       # number of ReadReq hits (Count)
system.cpu.icache.ReadReq.misses::cpu.inst          744                       # number of ReadReq misses (Count)
system.cpu.icache.ReadReq.misses::total           744                       # number of ReadReq misses (Count)
system.cpu.icache.ReadReq.missLatency::cpu.inst     51433985                       # number of ReadReq miss ticks (Tick)
system.cpu.icache.ReadReq.missLatency::total     51433985                       # number of ReadReq miss ticks (Tick)
system.cpu.icache.ReadReq.accesses::cpu.inst    183899888                       # number of ReadReq accesses(hits+misses) (Count)
system.cpu.icache.ReadReq.accesses::total    183899888                       # number of ReadReq accesses(hits+misses) (Count)
system.cpu.icache.ReadReq.missRate::cpu.inst     0.000004                       # miss rate for ReadReq accesses (Ratio)
system.cpu.icache.ReadReq.missRate::total     0.000004                       # miss rate for ReadReq accesses (Ratio)
system.cpu.icache.ReadReq.avgMissLatency::cpu.inst 69131.700269                       # average ReadReq miss latency ((Tick/Count))
system.cpu.icache.ReadReq.avgMissLatency::total 69131.700269                       # average ReadReq miss latency ((Tick/Count))
system.cpu.icache.ReadReq.mshrHits::cpu.inst          174                       # number of ReadReq MSHR hits (Count)
system.cpu.icache.ReadReq.mshrHits::total          174                       # number of ReadReq MSHR hits (Count)
system.cpu.icache.ReadReq.mshrMisses::cpu.inst          570                       # number of ReadReq MSHR misses (Count)
system.cpu.icache.ReadReq.mshrMisses::total          570                       # number of ReadReq MSHR misses (Count)
system.cpu.icache.ReadReq.mshrMissLatency::cpu.inst     40187347                       # number of ReadReq MSHR miss ticks (Tick)
system.cpu.icache.ReadReq.mshrMissLatency::total     40187347                       # number of ReadReq MSHR miss ticks (Tick)
system.cpu.icache.ReadReq.mshrMissRate::cpu.inst     0.000003                       # mshr miss rate for ReadReq accesses (Ratio)
system.cpu.icache.ReadReq.mshrMissRate::total     0.000003                       # mshr miss rate for ReadReq accesses (Ratio)
system.cpu.icache.ReadReq.avgMshrMissLatency::cpu.inst 70504.117544                       # average ReadReq mshr miss latency ((Tick/Count))
system.cpu.icache.ReadReq.avgMshrMissLatency::total 70504.117544                       # average ReadReq mshr miss latency ((Tick/Count))
system.cpu.icache.power_state.pwrStateResidencyTicks::UNDEFINED 994878731494                       # Cumulative time (in ticks) in various power states (Tick)
system.cpu.icache.tags.tagsInUse           430.319237                       # Average ticks per tags in use ((Tick/Count))
system.cpu.icache.tags.totalRefs            183899714                       # Total number of references to valid blocks. (Count)
system.cpu.icache.tags.sampledRefs                570                       # Sample count of references to valid blocks. (Count)
system.cpu.icache.tags.avgRefs           322631.077193                       # Average number of references to valid blocks. ((Count/Count))
system.cpu.icache.tags.warmupTick               81500                       # The tick when the warmup percentage was hit. (Tick)
system.cpu.icache.tags.occupancies::cpu.inst   430.319237                       # Average occupied blocks per tick, per requestor ((Count/Tick))
system.cpu.icache.tags.avgOccs::cpu.inst     0.840467                       # Average percentage of cache occupancy ((Ratio/Tick))
system.cpu.icache.tags.avgOccs::total        0.840467                       # Average percentage of cache occupancy ((Ratio/Tick))
system.cpu.icache.tags.occupanciesTaskId::1024          437                       # Occupied blocks per task id (Count)
system.cpu.icache.tags.ageTaskId_1024::4          437                       # Occupied blocks per task id, per block age (Count)
system.cpu.icache.tags.ratioOccsTaskId::1024     0.853516                       # Ratio of occupied blocks and all blocks, per task id (Ratio)
system.cpu.icache.tags.tagAccesses          735600122                       # Number of tag accesses (Count)
system.cpu.icache.tags.dataAccesses         735600122                       # Number of data accesses (Count)
system.cpu.icache.tags.power_state.pwrStateResidencyTicks::UNDEFINED 994878731494                       # Cumulative time (in ticks) in various power states (Tick)
system.cpu.iew.idleCycles                           0                       # Number of cycles IEW is idle (Cycle)
system.cpu.iew.squashCycles                   9214003                       # Number of cycles IEW is squashing (Cycle)
system.cpu.iew.blockCycles                 2499566033                       # Number of cycles IEW is blocking (Cycle)
system.cpu.iew.unblockCycles                195640150                       # Number of cycles IEW is unblocking (Cycle)
system.cpu.iew.dispatchedInsts             1426485602                       # Number of instructions dispatched to IQ (Count)
system.cpu.iew.dispSquashedInsts              3169646                       # Number of squashed instructions skipped by dispatch (Count)
system.cpu.iew.dispLoadInsts                347619374                       # Number of dispatched load instructions (Count)
system.cpu.iew.dispStoreInsts               143779664                       # Number of dispatched store instructions (Count)
system.cpu.iew.dispNonSpecInsts               1270425                       # Number of dispatched non-speculative instructions (Count)
system.cpu.iew.iqFullEvents                  10029810                       # Number of times the IQ has become full, causing a stall (Count)
system.cpu.iew.lsqFullEvents                178624624                       # Number of times the LSQ has become full, causing a stall (Count)
system.cpu.iew.memOrderViolationEvents         869548                       # Number of memory order violations (Count)
system.cpu.iew.predictedTakenIncorrect        4339310                       # Number of branches that were predicted taken incorrectly (Count)
system.cpu.iew.predictedNotTakenIncorrect      5098032                       # Number of branches that were predicted not taken incorrectly (Count)
system.cpu.iew.branchMispredicts              9437342                       # Number of branch mispredicts detected at execute (Count)
system.cpu.iew.instsToCommit               1245357548                       # Cumulative count of insts sent to commit (Count)
system.cpu.iew.writebackCount              1240641195                       # Cumulative count of insts written-back (Count)
system.cpu.iew.producerInst                 684467765                       # Number of instructions producing a value (Count)
system.cpu.iew.consumerInst                1206750886                       # Number of instructions consuming a value (Count)
system.cpu.iew.wbRate                        0.346674                       # Insts written-back per cycle ((Count/Cycle))
system.cpu.iew.wbFanout                      0.567199                       # Average fanout of values written-back ((Count/Count))
system.cpu.lsq0.forwLoads                    13391515                       # Number of loads that had data forwarded from stores (Count)
system.cpu.lsq0.squashedLoads                90386509                       # Number of loads squashed (Count)
system.cpu.lsq0.ignoredResponses               256100                       # Number of memory responses ignored because the instruction is squashed (Count)
system.cpu.lsq0.memOrderViolation              869548                       # Number of memory ordering violations (Count)
system.cpu.lsq0.squashedStores               29418240                       # Number of stores squashed (Count)
system.cpu.lsq0.rescheduledLoads              5096951                       # Number of loads that were rescheduled (Count)
system.cpu.lsq0.blockedByCache               16626157                       # Number of times an access to memory failed due to the cache being blocked (Count)
system.cpu.lsq0.loadToUse::samples          257022175                       # Distribution of cycle latency between the first time a load is issued and its completion (Unspecified)
system.cpu.lsq0.loadToUse::mean             45.659819                       # Distribution of cycle latency between the first time a load is issued and its completion (Unspecified)
system.cpu.lsq0.loadToUse::stdev           119.243925                       # Distribution of cycle latency between the first time a load is issued and its completion (Unspecified)
system.cpu.lsq0.loadToUse::0-9              197164371     76.71%     76.71% # Distribution of cycle latency between the first time a load is issued and its completion (Unspecified)
system.cpu.lsq0.loadToUse::10-19              2782762      1.08%     77.79% # Distribution of cycle latency between the first time a load is issued and its completion (Unspecified)
system.cpu.lsq0.loadToUse::20-29              2454950      0.96%     78.75% # Distribution of cycle latency between the first time a load is issued and its completion (Unspecified)
system.cpu.lsq0.loadToUse::30-39              1337270      0.52%     79.27% # Distribution of cycle latency between the first time a load is issued and its completion (Unspecified)
system.cpu.lsq0.loadToUse::40-49              8158603      3.17%     82.44% # Distribution of cycle latency between the first time a load is issued and its completion (Unspecified)
system.cpu.lsq0.loadToUse::50-59              8535693      3.32%     85.76% # Distribution of cycle latency between the first time a load is issued and its completion (Unspecified)
[...]
system.mem_ctrl.dram.perBankRdBursts::8        479707                       # Per bank write bursts (Count)
system.mem_ctrl.dram.perBankRdBursts::9        479860                       # Per bank write bursts (Count)
system.mem_ctrl.dram.perBankRdBursts::10       466953                       # Per bank write bursts (Count)
system.mem_ctrl.dram.perBankRdBursts::11       466176                       # Per bank write bursts (Count)
system.mem_ctrl.dram.perBankRdBursts::12       446874                       # Per bank write bursts (Count)
system.mem_ctrl.dram.perBankRdBursts::13       461359                       # Per bank write bursts (Count)
system.mem_ctrl.dram.perBankRdBursts::14       458394                       # Per bank write bursts (Count)
system.mem_ctrl.dram.perBankRdBursts::15       459806                       # Per bank write bursts (Count)
system.mem_ctrl.dram.perBankRdBursts::16       445972                       # Per bank write bursts (Count)
system.mem_ctrl.dram.perBankRdBursts::17       461326                       # Per bank write bursts (Count)
system.mem_ctrl.dram.perBankRdBursts::18       430856                       # Per bank write bursts (Count)
system.mem_ctrl.dram.perBankRdBursts::19       447317                       # Per bank write bursts (Count)
system.mem_ctrl.dram.perBankRdBursts::20       438996                       # Per bank write bursts (Count)
system.mem_ctrl.dram.perBankRdBursts::21       456679                       # Per bank write bursts (Count)
system.mem_ctrl.dram.perBankRdBursts::22       448537                       # Per bank write bursts (Count)
system.mem_ctrl.dram.perBankRdBursts::23       465638                       # Per bank write bursts (Count)
system.mem_ctrl.dram.perBankRdBursts::24       474040                       # Per bank write bursts (Count)
system.mem_ctrl.dram.perBankRdBursts::25       464711                       # Per bank write bursts (Count)
system.mem_ctrl.dram.perBankRdBursts::26       462113                       # Per bank write bursts (Count)
system.mem_ctrl.dram.perBankRdBursts::27       470780                       # Per bank write bursts (Count)
system.mem_ctrl.dram.perBankRdBursts::28       468419                       # Per bank write bursts (Count)
system.mem_ctrl.dram.perBankRdBursts::29       469961                       # Per bank write bursts (Count)
system.mem_ctrl.dram.perBankRdBursts::30       482530                       # Per bank write bursts (Count)
system.mem_ctrl.dram.perBankRdBursts::31       466565                       # Per bank write bursts (Count)
system.mem_ctrl.dram.perBankWrBursts::0        179800                       # Per bank write bursts (Count)
system.mem_ctrl.dram.perBankWrBursts::1        172915                       # Per bank write bursts (Count)
system.mem_ctrl.dram.perBankWrBursts::2        180283                       # Per bank write bursts (Count)
system.mem_ctrl.dram.perBankWrBursts::3        172749                       # Per bank write bursts (Count)
system.mem_ctrl.dram.perBankWrBursts::4        178768                       # Per bank write bursts (Count)
system.mem_ctrl.dram.perBankWrBursts::5        172121                       # Per bank write bursts (Count)
system.mem_ctrl.dram.perBankWrBursts::6        180192                       # Per bank write bursts (Count)
system.mem_ctrl.dram.perBankWrBursts::7        171603                       # Per bank write bursts (Count)
system.mem_ctrl.dram.perBankWrBursts::8        179850                       # Per bank write bursts (Count)
system.mem_ctrl.dram.perBankWrBursts::9        179992                       # Per bank write bursts (Count)
system.mem_ctrl.dram.perBankWrBursts::10       172401                       # Per bank write bursts (Count)
system.mem_ctrl.dram.perBankWrBursts::11       179250                       # Per bank write bursts (Count)
system.mem_ctrl.dram.perBankWrBursts::12       171849                       # Per bank write bursts (Count)
system.mem_ctrl.dram.perBankWrBursts::13       179156                       # Per bank write bursts (Count)
system.mem_ctrl.dram.perBankWrBursts::14       176988                       # Per bank write bursts (Count)
system.mem_ctrl.dram.perBankWrBursts::15       179169                       # Per bank write bursts (Count)
system.mem_ctrl.dram.perBankWrBursts::16       172884                       # Per bank write bursts (Count)
system.mem_ctrl.dram.perBankWrBursts::17       178998                       # Per bank write bursts (Count)
system.mem_ctrl.dram.perBankWrBursts::18       163606                       # Per bank write bursts (Count)
system.mem_ctrl.dram.perBankWrBursts::19       178716                       # Per bank write bursts (Count)
system.mem_ctrl.dram.perBankWrBursts::20       163678                       # Per bank write bursts (Count)
system.mem_ctrl.dram.perBankWrBursts::21       180882                       # Per bank write bursts (Count)
system.mem_ctrl.dram.perBankWrBursts::22       172694                       # Per bank write bursts (Count)
system.mem_ctrl.dram.perBankWrBursts::23       179472                       # Per bank write bursts (Count)
system.mem_ctrl.dram.perBankWrBursts::24       172787                       # Per bank write bursts (Count)
system.mem_ctrl.dram.perBankWrBursts::25       179917                       # Per bank write bursts (Count)
system.mem_ctrl.dram.perBankWrBursts::26       172671                       # Per bank write bursts (Count)
system.mem_ctrl.dram.perBankWrBursts::27       180214                       # Per bank write bursts (Count)
system.mem_ctrl.dram.perBankWrBursts::28       179897                       # Per bank write bursts (Count)
system.mem_ctrl.dram.perBankWrBursts::29       172476                       # Per bank write bursts (Count)
system.mem_ctrl.dram.perBankWrBursts::30       179440                       # Per bank write bursts (Count)
system.mem_ctrl.dram.perBankWrBursts::31       172127                       # Per bank write bursts (Count)
system.mem_ctrl.dram.totQLat             293936993724                       # Total ticks spent queuing (Tick)
system.mem_ctrl.dram.totBusLat            49597109884                       # Total ticks spent in databus transfers (Tick)
system.mem_ctrl.dram.totMemAccLat        554306935528                       # Total ticks spent from burst creation until serviced by the DRAM (Tick)
system.mem_ctrl.dram.avgQLat                 19747.08                       # Average queueing delay per DRAM burst ((Tick/Count))
system.mem_ctrl.dram.avgBusLat                3332.00                       # Average bus latency per DRAM burst ((Tick/Count))
system.mem_ctrl.dram.avgMemAccLat            37239.08                       # Average memory access latency per DRAM burst ((Tick/Count))
system.mem_ctrl.dram.readRowHits              7055362                       # Number of row buffer hits during reads (Count)
system.mem_ctrl.dram.writeRowHits             2830686                       # Number of row buffer hits during writes (Count)
system.mem_ctrl.dram.readRowHitRate             47.40                       # Row buffer hit rate for reads (Ratio)
system.mem_ctrl.dram.writeRowHitRate            50.30                       # Row buffer hit rate for writes (Ratio)
system.mem_ctrl.dram.bytesPerActivate::samples     10626577                       # Bytes accessed per row activation (Byte)
system.mem_ctrl.dram.bytesPerActivate::mean   123.539985                       # Bytes accessed per row activation (Byte)
system.mem_ctrl.dram.bytesPerActivate::gmean    85.610719                       # Bytes accessed per row activation (Byte)
system.mem_ctrl.dram.bytesPerActivate::stdev   179.271336                       # Bytes accessed per row activation (Byte)
system.mem_ctrl.dram.bytesPerActivate::0-127      8359710     78.67%     78.67% # Bytes accessed per row activation (Byte)
system.mem_ctrl.dram.bytesPerActivate::128-255      1281940     12.06%     90.73% # Bytes accessed per row activation (Byte)
system.mem_ctrl.dram.bytesPerActivate::256-383       254974      2.40%     93.13% # Bytes accessed per row activation (Byte)
system.mem_ctrl.dram.bytesPerActivate::384-511       181649      1.71%     94.84% # Bytes accessed per row activation (Byte)
system.mem_ctrl.dram.bytesPerActivate::512-639       129960      1.22%     96.06% # Bytes accessed per row activation (Byte)
system.mem_ctrl.dram.bytesPerActivate::640-767        83696      0.79%     96.85% # Bytes accessed per row activation (Byte)
system.mem_ctrl.dram.bytesPerActivate::768-895        62047      0.58%     97.43% # Bytes accessed per row activation (Byte)
system.mem_ctrl.dram.bytesPerActivate::896-1023        47776      0.45%     97.88% # Bytes accessed per row activation (Byte)
system.mem_ctrl.dram.bytesPerActivate::1024-1151       224825      2.12%    100.00% # Bytes accessed per row activation (Byte)
system.mem_ctrl.dram.bytesPerActivate::total     10626577                       # Bytes accessed per row activation (Byte)
system.mem_ctrl.dram.bytesRead              952645568                       # Total bytes read (Byte)
system.mem_ctrl.dram.bytesWritten           360162880                       # Total bytes written (Byte)
system.mem_ctrl.dram.avgRdBW               957.549436                       # Average DRAM read bandwidth in MiBytes/s ((Byte/Second))
system.mem_ctrl.dram.avgWrBW               362.016866                       # Average DRAM write bandwidth in MiBytes/s ((Byte/Second))
system.mem_ctrl.dram.peakBW                  19207.00                       # Theoretical peak bandwidth in MiByte/s ((Byte/Second))
system.mem_ctrl.dram.busUtil                     6.87                       # Data bus utilization in percentage (Ratio)
system.mem_ctrl.dram.busUtilRead                 4.99                       # Data bus utilization in percentage for reads (Ratio)
system.mem_ctrl.dram.busUtilWrite                1.88                       # Data bus utilization in percentage for writes (Ratio)
system.mem_ctrl.dram.pageHitRate                48.19                       # Row buffer hit rate, read and write combined (Ratio)
system.mem_ctrl.dram.power_state.pwrStateResidencyTicks::UNDEFINED 994878731494                       # Cumulative time (in ticks) in various power states (Tick)
system.mem_ctrl.dram.rank0.actEnergy     16611452440.127378                       # Energy for activate commands per rank (pJ) (Joule)
system.mem_ctrl.dram.rank0.preEnergy     22084684027.425739                       # Energy for precharge commands per rank (pJ) (Joule)
system.mem_ctrl.dram.rank0.readEnergy    31676286990.968945                       # Energy for read commands per rank (pJ) (Joule)
system.mem_ctrl.dram.rank0.writeEnergy   10625591422.656282                       # Energy for write commands per rank (pJ) (Joule)
system.mem_ctrl.dram.rank0.refreshEnergy 177023553203.343201                       # Energy for refresh commands per rank (pJ) (Joule)
system.mem_ctrl.dram.rank0.actBackEnergy 720777258481.880859                       # Energy for active background per rank (pJ) (Joule)
system.mem_ctrl.dram.rank0.preBackEnergy 95639281554.879959                       # Energy for precharge background per rank (pJ) (Joule)
system.mem_ctrl.dram.rank0.actPowerDownEnergy            0                       # Energy for active power-down per rank (pJ) (Joule)
system.mem_ctrl.dram.rank0.prePowerDownEnergy            0                       # Energy for precharge power-down per rank (pJ) (Joule)
system.mem_ctrl.dram.rank0.selfRefreshEnergy            0                       # Energy for self refresh per rank (pJ) (Joule)
system.mem_ctrl.dram.rank0.totalEnergy   1074438108121.893311                       # Total energy per rank (pJ) (Joule)
system.mem_ctrl.dram.rank0.averagePower   1079.968919                       # Core power per rank (mW) (Watt)
system.mem_ctrl.dram.rank0.totalIdleTime            0                       # Total Idle time Per DRAM Rank (Tick)
system.mem_ctrl.dram.rank0.pwrStateTime::IDLE 141695566898                       # Time in different power states (Tick)
system.mem_ctrl.dram.rank0.pwrStateTime::REF  44723000000                       # Time in different power states (Tick)
system.mem_ctrl.dram.rank0.pwrStateTime::SREF            0                       # Time in different power states (Tick)
system.mem_ctrl.dram.rank0.pwrStateTime::PRE_PDN            0                       # Time in different power states (Tick)
system.mem_ctrl.dram.rank0.pwrStateTime::ACT 808460164596                       # Time in different power states (Tick)
system.mem_ctrl.dram.rank0.pwrStateTime::ACT_PDN            0                       # Time in different power states (Tick)
system.mem_ctrl.dram.rank1.actEnergy     16530227663.039442                       # Energy for activate commands per rank (pJ) (Joule)
system.mem_ctrl.dram.rank1.preEnergy     21976725752.015587                       # Energy for precharge commands per rank (pJ) (Joule)
system.mem_ctrl.dram.rank1.readEnergy    30935104526.591980                       # Energy for read commands per rank (pJ) (Joule)
system.mem_ctrl.dram.rank1.writeEnergy   10525513949.664053                       # Energy for write commands per rank (pJ) (Joule)
system.mem_ctrl.dram.rank1.refreshEnergy 177023553203.343201                       # Energy for refresh commands per rank (pJ) (Joule)
system.mem_ctrl.dram.rank1.actBackEnergy 719099327059.048218                       # Energy for active background per rank (pJ) (Joule)
system.mem_ctrl.dram.rank1.preBackEnergy 96928539597.299896                       # Energy for precharge background per rank (pJ) (Joule)
system.mem_ctrl.dram.rank1.actPowerDownEnergy            0                       # Energy for active power-down per rank (pJ) (Joule)
system.mem_ctrl.dram.rank1.prePowerDownEnergy            0                       # Energy for precharge power-down per rank (pJ) (Joule)
system.mem_ctrl.dram.rank1.selfRefreshEnergy            0                       # Energy for self refresh per rank (pJ) (Joule)
system.mem_ctrl.dram.rank1.totalEnergy   1073018991751.596924                       # Total energy per rank (pJ) (Joule)
system.mem_ctrl.dram.rank1.averagePower   1078.542497                       # Core power per rank (mW) (Watt)
system.mem_ctrl.dram.rank1.totalIdleTime            0                       # Total Idle time Per DRAM Rank (Tick)
system.mem_ctrl.dram.rank1.pwrStateTime::IDLE 143767387272                       # Time in different power states (Tick)
system.mem_ctrl.dram.rank1.pwrStateTime::REF  44723000000                       # Time in different power states (Tick)
system.mem_ctrl.dram.rank1.pwrStateTime::SREF            0                       # Time in different power states (Tick)
system.mem_ctrl.dram.rank1.pwrStateTime::PRE_PDN            0                       # Time in different power states (Tick)
system.mem_ctrl.dram.rank1.pwrStateTime::ACT 806388344222                       # Time in different power states (Tick)
system.mem_ctrl.dram.rank1.pwrStateTime::ACT_PDN            0                       # Time in different power states (Tick)
system.mem_ctrl.power_state.pwrStateResidencyTicks::UNDEFINED 994878731494                       # Cumulative time (in ticks) in various power states (Tick)
system.membus.transDist::ReadResp            14577024                       # Transaction distribution (Count)
system.membus.transDist::WritebackDirty       5627604                       # Transaction distribution (Count)
system.membus.transDist::CleanEvict           9230704                       # Transaction distribution (Count)
system.membus.transDist::UpgradeReq                 7                       # Transaction distribution (Count)
system.membus.transDist::ReadExReq             314790                       # Transaction distribution (Count)
system.membus.transDist::ReadExResp            314790                       # Transaction distribution (Count)
system.membus.transDist::ReadSharedReq       14577024                       # Transaction distribution (Count)
system.membus.pktCount_system.l2cache.mem_side_port::system.mem_ctrl.port     44641943                       # Packet count per connected requestor and responder (Count)
system.membus.pktCount::total                44641943                       # Packet count per connected requestor and responder (Count)
system.membus.pktSize_system.l2cache.mem_side_port::system.mem_ctrl.port   1313242752                       # Cumulative packet size per connected requestor and responder (Byte)
system.membus.pktSize::total               1313242752                       # Cumulative packet size per connected requestor and responder (Byte)
system.membus.snoops                                0                       # Total snoops (Count)
system.membus.snoopTraffic                          0                       # Total snoop traffic (Byte)
system.membus.snoopFanout::samples           14891821                       # Request fanout histogram (Count)
system.membus.snoopFanout::mean                     0                       # Request fanout histogram (Count)
system.membus.snoopFanout::stdev                    0                       # Request fanout histogram (Count)
system.membus.snoopFanout::underflows               0      0.00%      0.00% # Request fanout histogram (Count)
system.membus.snoopFanout::0                 14891821    100.00%    100.00% # Request fanout histogram (Count)
system.membus.snoopFanout::1                        0      0.00%    100.00% # Request fanout histogram (Count)
system.membus.snoopFanout::overflows                0      0.00%    100.00% # Request fanout histogram (Count)
system.membus.snoopFanout::min_value                0                       # Request fanout histogram (Count)
system.membus.snoopFanout::max_value                0                       # Request fanout histogram (Count)
system.membus.snoopFanout::total             14891821                       # Request fanout histogram (Count)
system.membus.power_state.pwrStateResidencyTicks::UNDEFINED 994878731494                       # Cumulative time (in ticks) in various power states (Tick)
system.membus.reqLayer0.occupancy         27856972412                       # Layer occupancy (ticks) (Tick)
system.membus.reqLayer0.utilization               0.0                       # Layer utilization (Ratio)
system.membus.respLayer0.occupancy        39234421154                       # Layer occupancy (ticks) (Tick)
system.membus.respLayer0.utilization              0.0                       # Layer utilization (Ratio)
system.membus.snoop_filter.totRequests       29750129                       # Total number of requests made to the snoop filter. (Count)
system.membus.snoop_filter.hitSingleRequests     14858618                       # Number of requests hitting in the snoop filter with a single holder of the requested data. (Count)
system.membus.snoop_filter.hitMultiRequests            0                       # Number of requests hitting in the snoop filter with multiple (>1) holders of the requested data. (Count)
system.membus.snoop_filter.totSnoops                0                       # Total number of snoops made to the snoop filter. (Count)
system.membus.snoop_filter.hitSingleSnoops            0                       # Number of snoops hitting in the snoop filter with a single holder of the requested data. (Count)
system.membus.snoop_filter.hitMultiSnoops            0                       # Number of snoops hitting in the snoop filter with multiple (>1) holders of the requested data. (Count)
system.workload.inst.arm                            0                       # number of arm instructions executed (Count)
system.workload.inst.quiesce                        0                       # number of quiesce instructions executed (Count)

---------- End Simulation Statistics   ----------
