
---------- Begin Simulation Statistics ----------
simSeconds                                   0.364991                       # Number of seconds simulated (Second)
simTicks                                 364991390000                       # Number of ticks simulated (Tick)
finalTick                                364991390000                       # Number of ticks from beginning of simulation (restored from checkpoints and never reset) (Tick)
simFreq                                  1000000000000                       # The number of ticks per simulated second ((Tick/Second))
hostSeconds                                   3962.64                       # Real time elapsed on the host (Second)
hostTickRate                                 92108182                       # The number of ticks simulated per host second (ticks/s) ((Tick/Second))
hostMemory                                    2286852                       # Number of bytes of host memory used (Byte)
simInsts                                   1000000001                       # Number of instructions simulated (Count)
simOps                                     1177819171                       # Number of ops (including micro ops) simulated (Count)
hostInstRate                                   252357                       # Simulator instruction rate (inst/s) ((Count/Second))
hostOpRate                                     297231                       # Simulator op (including micro ops) rate (op/s) ((Count/Second))
system.clk_domain.clock                           500                       # Clock period in ticks (Tick)
system.clk_domain.voltage_domain.voltage            1                       # Voltage in Volts (Volt)
system.cpu.numCycles                        729982781                       # Number of cpu cycles simulated (Cycle)
system.cpu.numWorkItemsStarted                      0                       # Number of work items this cpu started (Count)
system.cpu.numWorkItemsCompleted                    0                       # Number of work items this cpu completed (Count)
system.cpu.instsAdded                      1318275354                       # Number of instructions added to the IQ (excludes non-spec) (Count)
system.cpu.nonSpecInstsAdded                      113                       # Number of non-speculative instructions added to the IQ (Count)
system.cpu.instsIssued                     1282967250                       # Number of instructions issued (Count)
system.cpu.squashedInstsIssued                   1787                       # Number of squashed instructions issued (Count)
system.cpu.squashedInstsExamined            140456226                       # Number of squashed instructions iterated over during squash; mainly for profiling (Count)
system.cpu.squashedOperandsExamined         316940344                       # Number of squashed operands that are examined and possibly removed from graph (Count)
system.cpu.squashedNonSpecRemoved                  17                       # Number of squashed non-spec instructions that were removed (Count)
system.cpu.numIssuedDist::samples           729961083                       # Number of insts issued each cycle (Count)
system.cpu.numIssuedDist::mean               1.757583                       # Number of insts issued each cycle (Count)
system.cpu.numIssuedDist::stdev              2.217313                       # Number of insts issued each cycle (Count)
system.cpu.numIssuedDist::underflows                0      0.00%      0.00% # Number of insts issued each cycle (Count)
system.cpu.numIssuedDist::0                 343479832     47.05%     47.05% # Number of insts issued each cycle (Count)
system.cpu.numIssuedDist::1                  82449670     11.30%     58.35% # Number of insts issued each cycle (Count)
system.cpu.numIssuedDist::2                  83902628     11.49%     69.84% # Number of insts issued each cycle (Count)
system.cpu.numIssuedDist::3                  68877580      9.44%     79.28% # Number of insts issued each cycle (Count)
system.cpu.numIssuedDist::4                  50699933      6.95%     86.23% # Number of insts issued each cycle (Count)
system.cpu.numIssuedDist::5                  36282923      4.97%     91.20% # Number of insts issued each cycle (Count)
system.cpu.numIssuedDist::6                  29293440      4.01%     95.21% # Number of insts issued each cycle (Count)
system.cpu.numIssuedDist::7                  13696019      1.88%     97.08% # Number of insts issued each cycle (Count)
system.cpu.numIssuedDist::8                  21279058      2.92%    100.00% # Number of insts issued each cycle (Count)
system.cpu.numIssuedDist::overflows                 0      0.00%    100.00% # Number of insts issued each cycle (Count)
system.cpu.numIssuedDist::min_value                 0                       # Number of insts issued each cycle (Count)
system.cpu.numIssuedDist::max_value                 8                       # Number of insts issued each cycle (Count)
system.cpu.numIssuedDist::total             729961083                       # Number of insts issued each cycle (Count)
system.cpu.statFuBusy::No_OpClass                   0      0.00%      0.00% # attempts to use FU when none available (Count)
system.cpu.statFuBusy::IntAlu                 5921560     78.84%     78.84% # attempts to use FU when none available (Count)
system.cpu.statFuBusy::IntMult                      0      0.00%     78.84% # attempts to use FU when none available (Count)
system.cpu.statFuBusy::IntDiv                       0      0.00%     78.84% # attempts to use FU when none available (Count)
system.cpu.statFuBusy::FloatAdd                     0      0.00%     78.84% # attempts to use FU when none available (Count)
system.cpu.statFuBusy::FloatCmp                     0      0.00%     78.84% # attempts to use FU when none available (Count)
system.cpu.statFuBusy::FloatCvt                     0      0.00%     78.84% # attempts to use FU when none available (Count)
system.cpu.statFuBusy::FloatMult                    0      0.00%     78.84% # attempts to use FU when none available (Count)
system.cpu.statFuBusy::FloatMultAcc                 0      0.00%     78.84% # attempts to use FU when none available (Count)
system.cpu.statFuBusy::FloatDiv                     0      0.00%     78.84% # attempts to use FU when none available (Count)
system.cpu.statFuBusy::FloatMisc                    0      0.00%     78.84% # attempts to use FU when none available (Count)
system.cpu.statFuBusy::FloatSqrt                    0      0.00%     78.84% # attempts to use FU when none available (Count)
system.cpu.statFuBusy::SimdAdd                      0      0.00%     78.84% # attempts to use FU when none available (Count)
system.cpu.statFuBusy::SimdAddAcc                   0      0.00%     78.84% # attempts to use FU when none available (Count)
system.cpu.statFuBusy::SimdAlu                      0      0.00%     78.84% # attempts to use FU when none available (Count)
system.cpu.statFuBusy::SimdCmp                      0      0.00%     78.84% # attempts to use FU when none available (Count)
system.cpu.statFuBusy::SimdCvt                      0      0.00%     78.84% # attempts to use FU when none available (Count)
system.cpu.statFuBusy::SimdMisc                     0      0.00%     78.84% # attempts to use FU when none available (Count)
system.cpu.statFuBusy::SimdMult                     0      0.00%     78.84% # attempts to use FU when none available (Count)
system.cpu.statFuBusy::SimdMultAcc                  0      0.00%     78.84% # attempts to use FU when none available (Count)
system.cpu.statFuBusy::SimdShift                    0      0.00%     78.84% # attempts to use FU when none available (Count)
system.cpu.statFuBusy::SimdShiftAcc                 0      0.00%     78.84% # attempts to use FU when none available (Count)
system.cpu.statFuBusy::SimdDiv                      0      0.00%     78.84% # attempts to use FU when none available (Count)
system.cpu.statFuBusy::SimdSqrt                     0      0.00%     78.84% # attempts to use FU when none available (Count)
system.cpu.statFuBusy::SimdFloatAdd                 0      0.00%     78.84% # attempts to use FU when none available (Count)
system.cpu.statFuBusy::SimdFloatAlu                 0      0.00%     78.84% # attempts to use FU when none available (Count)
system.cpu.statFuBusy::SimdFloatCmp                 0      0.00%     78.84% # attempts to use FU when none available (Count)
system.cpu.statFuBusy::SimdFloatCvt                 0      0.00%     78.84% # attempts to use FU when none available (Count)
system.cpu.statFuBusy::SimdFloatDiv                 0      0.00%     78.84% # attempts to use FU when none available (Count)
system.cpu.statFuBusy::SimdFloatMisc                0      0.00%     78.84% # attempts to use FU when none available (Count)
system.cpu.statFuBusy::SimdFloatMult                0      0.00%     78.84% # attempts to use FU when none available (Count)
system.cpu.statFuBusy::SimdFloatMultAcc             0      0.00%     78.84% # attempts to use FU when none available (Count)
system.cpu.statFuBusy::SimdFloatSqrt                0      0.00%     78.84% # attempts to use FU when none available (Count)
system.cpu.statFuBusy::SimdReduceAdd                0      0.00%     78.84% # attempts to use FU when none available (Count)
system.cpu.statFuBusy::SimdReduceAlu                0      0.00%     78.84% # attempts to use FU when none available (Count)
system.cpu.statFuBusy::SimdReduceCmp                0      0.00%     78.84% # attempts to use FU when none available (Count)
system.cpu.statFuBusy::SimdFloatReduceAdd            0      0.00%     78.84% # attempts to use FU when none available (Count)
system.cpu.statFuBusy::SimdFloatReduceCmp            0      0.00%     78.84% # attempts to use FU when none available (Count)
system.cpu.statFuBusy::SimdAes                      0      0.00%     78.84% # attempts to use FU when none available (Count)
system.cpu.statFuBusy::SimdAesMix                   0      0.00%     78.84% # attempts to use FU when none available (Count)
system.cpu.statFuBusy::SimdSha1Hash                 0      0.00%     78.84% # attempts to use FU when none available (Count)
system.cpu.statFuBusy::SimdSha1Hash2                0      0.00%     78.84% # attempts to use FU when none available (Count)
system.cpu.statFuBusy::SimdSha256Hash               0      0.00%     78.84% # attempts to use FU when none available (Count)
system.cpu.statFuBusy::SimdSha256Hash2              0      0.00%     78.84% # attempts to use FU when none available (Count)
system.cpu.statFuBusy::SimdShaSigma2                0      0.00%     78.84% # attempts to use FU when none available (Count)
system.cpu.statFuBusy::SimdShaSigma3                0      0.00%     78.84% # attempts to use FU when none available (Count)
system.cpu.statFuBusy::SimdPredAlu                  0      0.00%     78.84% # attempts to use FU when none available (Count)
system.cpu.statFuBusy::MemRead                1538220     20.48%     99.32% # attempts to use FU when none available (Count)
system.cpu.statFuBusy::MemWrite                 50983      0.68%    100.00% # attempts to use FU when none available (Count)
system.cpu.statFuBusy::FloatMemRead                 0      0.00%    100.00% # attempts to use FU when none available (Count)
system.cpu.statFuBusy::FloatMemWrite                0      0.00%    100.00% # attempts to use FU when none available (Count)
system.cpu.statFuBusy::IprAccess                    0      0.00%    100.00% # attempts to use FU when none available (Count)
system.cpu.statFuBusy::InstPrefetch                 0      0.00%    100.00% # attempts to use FU when none available (Count)
system.cpu.statIssuedInstType_0::No_OpClass     23976555      1.87%      1.87% # Number of instructions issued per FU type, per thread (Count)
system.cpu.statIssuedInstType_0::IntAlu     970590171     75.65%     77.52% # Number of instructions issued per FU type, per thread (Count)
system.cpu.statIssuedInstType_0::IntMult     24481982      1.91%     79.43% # Number of instructions issued per FU type, per thread (Count)
system.cpu.statIssuedInstType_0::IntDiv             0      0.00%     79.43% # Number of instructions issued per FU type, per thread (Count)
system.cpu.statIssuedInstType_0::FloatAdd            0      0.00%     79.43% # Number of instructions issued per FU type, per thread (Count)
system.cpu.statIssuedInstType_0::FloatCmp            0      0.00%     79.43% # Number of instructions issued per FU type, per thread (Count)
system.cpu.statIssuedInstType_0::FloatCvt            0      0.00%     79.43% # Number of instructions issued per FU type, per thread (Count)
system.cpu.statIssuedInstType_0::FloatMult            0      0.00%     79.43% # Number of instructions issued per FU type, per thread (Count)
system.cpu.statIssuedInstType_0::FloatMultAcc            0      0.00%     79.43% # Number of instructions issued per FU type, per thread (Count)
system.cpu.statIssuedInstType_0::FloatDiv            0      0.00%     79.43% # Number of instructions issued per FU type, per thread (Count)
system.cpu.statIssuedInstType_0::FloatMisc            0      0.00%     79.43% # Number of instructions issued per FU type, per thread (Count)
system.cpu.statIssuedInstType_0::FloatSqrt            0      0.00%     79.43% # Number of instructions issued per FU type, per thread (Count)
system.cpu.statIssuedInstType_0::SimdAdd            0      0.00%     79.43% # Number of instructions issued per FU type, per thread (Count)
system.cpu.statIssuedInstType_0::SimdAddAcc            0      0.00%     79.43% # Number of instructions issued per FU type, per thread (Count)
system.cpu.statIssuedInstType_0::SimdAlu            0      0.00%     79.43% # Number of instructions issued per FU type, per thread (Count)
system.cpu.statIssuedInstType_0::SimdCmp            0      0.00%     79.43% # Number of instructions issued per FU type, per thread (Count)
system.cpu.statIssuedInstType_0::SimdCvt            0      0.00%     79.43% # Number of instructions issued per FU type, per thread (Count)
system.cpu.statIssuedInstType_0::SimdMisc            0      0.00%     79.43% # Number of instructions issued per FU type, per thread (Count)
system.cpu.statIssuedInstType_0::SimdMult            0      0.00%     79.43% # Number of instructions issued per FU type, per thread (Count)
system.cpu.statIssuedInstType_0::SimdMultAcc            0      0.00%     79.43% # Number of instructions issued per FU type, per thread (Count)
system.cpu.statIssuedInstType_0::SimdShift            0      0.00%     79.43% # Number of instructions issued per FU type, per thread (Count)
system.cpu.statIssuedInstType_0::SimdShiftAcc            0      0.00%     79.43% # Number of instructions issued per FU type, per thread (Count)
system.cpu.statIssuedInstType_0::SimdDiv            0      0.00%     79.43% # Number of instructions issued per FU type, per thread (Count)
system.cpu.statIssuedInstType_0::SimdSqrt            0      0.00%     79.43% # Number of instructions issued per FU type, per thread (Count)
system.cpu.statIssuedInstType_0::SimdFloatAdd            0      0.00%     79.43% # Number of instructions issued per FU type, per thread (Count)
system.cpu.statIssuedInstType_0::SimdFloatAlu            0      0.00%     79.43% # Number of instructions issued per FU type, per thread (Count)
system.cpu.statIssuedInstType_0::SimdFloatCmp            0      0.00%     79.43% # Number of instructions issued per FU type, per thread (Count)
system.cpu.statIssuedInstType_0::SimdFloatCvt            0      0.00%     79.43% # Number of instructions issued per FU type, per thread (Count)
system.cpu.statIssuedInstType_0::SimdFloatDiv            0      0.00%     79.43% # Number of instructions issued per FU type, per thread (Count)
system.cpu.statIssuedInstType_0::SimdFloatMisc            0      0.00%     79.43% # Number of instructions issued per FU type, per thread (Count)
system.cpu.statIssuedInstType_0::SimdFloatMult            0      0.00%     79.43% # Number of instructions issued per FU type, per thread (Count)
system.cpu.statIssuedInstType_0::SimdFloatMultAcc            0      0.00%     79.43% # Number of instructions issued per FU type, per thread (Count)
system.cpu.statIssuedInstType_0::SimdFloatSqrt            0      0.00%     79.43% # Number of instructions issued per FU type, per thread (Count)
system.cpu.statIssuedInstType_0::SimdReduceAdd            0      0.00%     79.43% # Number of instructions issued per FU type, per thread (Count)
system.cpu.statIssuedInstType_0::SimdReduceAlu            0      0.00%     79.43% # Number of instructions issued per FU type, per thread (Count)
system.cpu.statIssuedInstType_0::SimdReduceCmp            0      0.00%     79.43% # Number of instructions issued per FU type, per thread (Count)
system.cpu.statIssuedInstType_0::SimdFloatReduceAdd            0      0.00%     79.43% # Number of instructions issued per FU type, per thread (Count)
system.cpu.statIssuedInstType_0::SimdFloatReduceCmp            0      0.00%     79.43% # Number of instructions issued per FU type, per thread (Count)
system.cpu.statIssuedInstType_0::SimdAes            0      0.00%     79.43% # Number of instructions issued per FU type, per thread (Count)
system.cpu.statIssuedInstType_0::SimdAesMix            0      0.00%     79.43% # Number of instructions issued per FU type, per thread (Count)
system.cpu.statIssuedInstType_0::SimdSha1Hash            0      0.00%     79.43% # Number of instructions issued per FU type, per thread (Count)
system.cpu.statIssuedInstType_0::SimdSha1Hash2            0      0.00%     79.43% # Number of instructions issued per FU type, per thread (Count)
system.cpu.statIssuedInstType_0::SimdSha256Hash            0      0.00%     79.43% # Number of instructions issued per FU type, per thread (Count)
system.cpu.statIssuedInstType_0::SimdSha256Hash2            0      0.00%     79.43% # Number of instructions issued per FU type, per thread (Count)
system.cpu.statIssuedInstType_0::SimdShaSigma2            0      0.00%     79.43% # Number of instructions issued per FU type, per thread (Count)
system.cpu.statIssuedInstType_0::SimdShaSigma3            0      0.00%     79.43% # Number of instructions issued per FU type, per thread (Count)
system.cpu.statIssuedInstType_0::SimdPredAlu            0      0.00%     79.43% # Number of instructions issued per FU type, per thread (Count)
system.cpu.statIssuedInstType_0::MemRead    158549895     12.36%     91.79% # Number of instructions issued per FU type, per thread (Count)
system.cpu.statIssuedInstType_0::MemWrite    105368647      8.21%    100.00% # Number of instructions issued per FU type, per thread (Count)
system.cpu.statIssuedInstType_0::FloatMemRead            0      0.00%    100.00% # Number of instructions issued per FU type, per thread (Count)
system.cpu.statIssuedInstType_0::FloatMemWrite            0      0.00%    100.00% # Number of instructions issued per FU type, per thread (Count)
system.cpu.statIssuedInstType_0::IprAccess            0      0.00%    100.00% # Number of instructions issued per FU type, per thread (Count)
system.cpu.statIssuedInstType_0::InstPrefetch            0      0.00%    100.00% # Number of instructions issued per FU type, per thread (Count)
system.cpu.statIssuedInstType_0::total     1282967250                       # Number of instructions issued per FU type, per thread (Count)
system.cpu.issueRate                         1.757531                       # Inst issue rate ((Count/Cycle))
system.cpu.fuBusy                             7510763                       # FU busy when requested (Count)
system.cpu.fuBusyRate                        0.005854                       # FU busy rate (busy events/executed inst) ((Count/Count))
system.cpu.intInstQueueReads               3303408131                       # Number of integer instruction queue reads (Count)
system.cpu.intInstQueueWrites              1458735630                       # Number of integer instruction queue writes (Count)
system.cpu.intInstQueueWakeupAccesses      1223664056                       # Number of integer instruction queue wakeup accesses (Count)
system.cpu.fpInstQueueReads                         0                       # Number of floating instruction queue reads (Count)
system.cpu.fpInstQueueWrites                        0                       # Number of floating instruction queue writes (Count)
system.cpu.fpInstQueueWakeupAccesses                0                       # Number of floating instruction queue wakeup accesses (Count)
system.cpu.vecInstQueueReads                        0                       # Number of vector instruction queue reads (Count)
system.cpu.vecInstQueueWrites                       0                       # Number of vector instruction queue writes (Count)
system.cpu.vecInstQueueWakeupAccesses               0                       # Number of vector instruction queue wakeup accesses (Count)
system.cpu.intAluAccesses                  1266501458                       # Number of integer alu accesses (Count)
system.cpu.fpAluAccesses                            0                       # Number of floating point alu accesses (Count)
system.cpu.vecAluAccesses                           0                       # Number of vector alu accesses (Count)
system.cpu.numInsts                        1279709650                       # Number of executed instructions (Count)
system.cpu.numLoadInsts                     157486228                       # Number of load instructions executed (Count)
system.cpu.numSquashedInsts                   3257598                       # Number of squashed instructions skipped in execute (Count)
system.cpu.numSwp                                   0                       # Number of swp insts executed (Count)
system.cpu.numNop                                   0                       # Number of nop insts executed (Count)
system.cpu.numRefs                          262830558                       # Number of memory reference insts executed (Count)
system.cpu.numBranches                      144661532                       # Number of branches executed (Count)
system.cpu.numStoreInsts                    105344330                       # Number of stores executed (Count)
system.cpu.numRate                           1.753068                       # Inst execution rate ((Count/Cycle))
system.cpu.timesIdled                             219                       # Number of times that the entire CPU went into an idle state and unscheduled itself (Count)
system.cpu.idleCycles                           21698                       # Total number of cycles that the CPU has spent unscheduled due to idling (Cycle)
system.cpu.committedInsts                  1000000001                       # Number of Instructions Simulated (Count)
system.cpu.committedOps                    1177819171                       # Number of Ops (including micro ops) Simulated (Count)
system.cpu.cpi                               0.729983                       # CPI: Cycles Per Instruction ((Cycle/Count))
system.cpu.totalCpi                          0.729983                       # CPI: Total CPI of All Threads ((Cycle/Count))
system.cpu.ipc                               1.369895                       # IPC: Instructions Per Cycle ((Count/Cycle))
system.cpu.totalIpc                          1.369895                       # IPC: Total IPC of All Threads ((Count/Cycle))
system.cpu.intRegfileReads                 1626832875                       # Number of integer regfile reads (Count)
system.cpu.intRegfileWrites                 995943281                       # Number of integer regfile writes (Count)
system.cpu.vecRegfileReads                         16                       # number of vector regfile reads (Count)
system.cpu.ccRegfileReads                  4176175843                       # number of cc regfile reads (Count)
system.cpu.ccRegfileWrites                  503601739                       # number of cc regfile writes (Count)
system.cpu.miscRegfileReads                 227799145                       # number of misc regfile reads (Count)
system.cpu.miscRegfileWrites                      165                       # number of misc regfile writes (Count)
system.cpu.MemDepUnit__0.insertedLoads      129993978                       # Number of loads inserted to the mem dependence unit. (Count)
system.cpu.MemDepUnit__0.insertedStores     105836412                       # Number of stores inserted to the mem dependence unit. (Count)
system.cpu.MemDepUnit__0.conflictingLoads     32457896                       # Number of conflicting loads. (Count)
system.cpu.MemDepUnit__0.conflictingStores     23501525                       # Number of conflicting stores. (Count)
system.cpu.MemDepUnit__1.insertedLoads              0                       # Number of loads inserted to the mem dependence unit. (Count)
system.cpu.MemDepUnit__1.insertedStores             0                       # Number of stores inserted to the mem dependence unit. (Count)
system.cpu.MemDepUnit__1.conflictingLoads            0                       # Number of conflicting loads. (Count)
system.cpu.MemDepUnit__1.conflictingStores            0                       # Number of conflicting stores. (Count)
system.cpu.MemDepUnit__2.insertedLoads              0                       # Number of loads inserted to the mem dependence unit. (Count)
system.cpu.MemDepUnit__2.insertedStores             0                       # Number of stores inserted to the mem dependence unit. (Count)
system.cpu.MemDepUnit__2.conflictingLoads            0                       # Number of conflicting loads. (Count)
system.cpu.MemDepUnit__2.conflictingStores            0                       # Number of conflicting stores. (Count)
system.cpu.MemDepUnit__3.insertedLoads              0                       # Number of loads inserted to the mem dependence unit. (Count)
system.cpu.MemDepUnit__3.insertedStores             0                       # Number of stores inserted to the mem dependence unit. (Count)
system.cpu.MemDepUnit__3.conflictingLoads            0                       # Number of conflicting loads. (Count)
system.cpu.MemDepUnit__3.conflictingStores            0                       # Number of conflicting stores. (Count)
system.cpu.branchPred.lookups               153177417                       # Number of BP lookups (Count)
system.cpu.branchPred.condPredicted         101110960                       # Number of conditional branches predicted (Count)
system.cpu.branchPred.condIncorrect           4374844                       # Number of conditional branches incorrect (Count)
system.cpu.branchPred.BTBLookups             76986638                       # Number of BTB lookups (Count)
system.cpu.branchPred.BTBHits                76985835                       # Number of BTB hits (Count)
system.cpu.branchPred.BTBHitRatio            0.999990                       # BTB Hit Ratio (Ratio)
system.cpu.branchPred.RASUsed                27953057                       # Number of times the RAS was used to get a target. (Count)
system.cpu.branchPred.RASIncorrect            4206358                       # Number of incorrect RAS predictions. (Count)
system.cpu.branchPred.indirectLookups             183                       # Number of indirect predictor lookups. (Count)
system.cpu.branchPred.indirectHits                 35                       # Number of indirect target hits. (Count)
system.cpu.branchPred.indirectMisses              148                       # Number of indirect misses. (Count)
system.cpu.branchPred.indirectMispredicted           62                       # Number of mispredicted indirect branches. (Count)
system.cpu.commit.commitSquashedInsts       140084652                       # The number of squashed insts skipped by commit (Count)
system.cpu.commit.commitNonSpecStalls              96                       # The number of times commit has been forced to stall to communicate backwards (Count)
system.cpu.commit.branchMispredicts          28345919                       # The number of times a branch was mispredicted (Count)
system.cpu.commit.numCommittedDist::samples    683501024                       # Number of insts commited each cycle (Count)
system.cpu.commit.numCommittedDist::mean     1.723215                       # Number of insts commited each cycle (Count)
system.cpu.commit.numCommittedDist::stdev     2.602189                       # Number of insts commited each cycle (Count)
system.cpu.commit.numCommittedDist::underflows            0      0.00%      0.00% # Number of insts commited each cycle (Count)
system.cpu.commit.numCommittedDist::0       368954305     53.98%     53.98% # Number of insts commited each cycle (Count)
system.cpu.commit.numCommittedDist::1        97297816     14.24%     68.22% # Number of insts commited each cycle (Count)
system.cpu.commit.numCommittedDist::2        34902580      5.11%     73.32% # Number of insts commited each cycle (Count)
system.cpu.commit.numCommittedDist::3        51495331      7.53%     80.86% # Number of insts commited each cycle (Count)
system.cpu.commit.numCommittedDist::4        27583097      4.04%     84.89% # Number of insts commited each cycle (Count)
system.cpu.commit.numCommittedDist::5        12591133      1.84%     86.73% # Number of insts commited each cycle (Count)
system.cpu.commit.numCommittedDist::6        17589434      2.57%     89.31% # Number of insts commited each cycle (Count)
system.cpu.commit.numCommittedDist::7         7293079      1.07%     90.37% # Number of insts commited each cycle (Count)
system.cpu.commit.numCommittedDist::8        65794249      9.63%    100.00% # Number of insts commited each cycle (Count)
system.cpu.commit.numCommittedDist::overflows            0      0.00%    100.00% # Number of insts commited each cycle (Count)
system.cpu.commit.numCommittedDist::min_value            0                       # Number of insts commited each cycle (Count)
system.cpu.commit.numCommittedDist::max_value            8                       # Number of insts commited each cycle (Count)
system.cpu.commit.numCommittedDist::total    683501024                       # Number of insts commited each cycle (Count)
system.cpu.commit.instsCommitted           1000000001                       # Number of instructions committed (Count)
system.cpu.commit.opsCommitted             1177819171                       # Number of ops (including micro ops) committed (Count)
system.cpu.commit.memRefs                   225789107                       # Number of memory references committed (Count)
system.cpu.commit.loads                     120667805                       # Number of loads committed (Count)
system.cpu.commit.amos                              0                       # Number of atomic instructions committed (Count)
system.cpu.commit.membars                          42                       # Number of memory barriers committed (Count)
system.cpu.commit.branches                  139955285                       # Number of branches committed (Count)
system.cpu.commit.vectorInstructions                0                       # Number of committed Vector instructions. (Count)
system.cpu.commit.floating                          0                       # Number of committed floating point instructions. (Count)
system.cpu.commit.integer                  1114424375                       # Number of committed integer instructions. (Count)
system.cpu.commit.functionCalls              36944233                       # Number of function calls committed. (Count)
system.cpu.commit.committedInstType_0::No_OpClass            0      0.00%      0.00% # Class of committed instruction (Count)
system.cpu.commit.committedInstType_0::IntAlu    931875767     79.12%     79.12% # Class of committed instruction (Count)
system.cpu.commit.committedInstType_0::IntMult     20154297      1.71%     80.83% # Class of committed instruction (Count)
system.cpu.commit.committedInstType_0::IntDiv            0      0.00%     80.83% # Class of committed instruction (Count)
system.cpu.commit.committedInstType_0::FloatAdd            0      0.00%     80.83% # Class of committed instruction (Count)
system.cpu.commit.committedInstType_0::FloatCmp            0      0.00%     80.83% # Class of committed instruction (Count)
system.cpu.commit.committedInstType_0::FloatCvt            0      0.00%     80.83% # Class of committed instruction (Count)
system.cpu.commit.committedInstType_0::FloatMult            0      0.00%     80.83% # Class of committed instruction (Count)
system.cpu.commit.committedInstType_0::FloatMultAcc            0      0.00%     80.83% # Class of committed instruction (Count)
system.cpu.commit.committedInstType_0::FloatDiv            0      0.00%     80.83% # Class of committed instruction (Count)
system.cpu.commit.committedInstType_0::FloatMisc            0      0.00%     80.83% # Class of committed instruction (Count)
system.cpu.commit.committedInstType_0::FloatSqrt            0      0.00%     80.83% # Class of committed instruction (Count)
system.cpu.commit.committedInstType_0::SimdAdd            0      0.00%     80.83% # Class of committed instruction (Count)
system.cpu.commit.committedInstType_0::SimdAddAcc            0      0.00%     80.83% # Class of committed instruction (Count)
system.cpu.commit.committedInstType_0::SimdAlu            0      0.00%     80.83% # Class of committed instruction (Count)
system.cpu.commit.committedInstType_0::SimdCmp            0      0.00%     80.83% # Class of committed instruction (Count)
system.cpu.commit.committedInstType_0::SimdCvt            0      0.00%     80.83% # Class of committed instruction (Count)
system.cpu.commit.committedInstType_0::SimdMisc            0      0.00%     80.83% # Class of committed instruction (Count)
system.cpu.commit.committedInstType_0::SimdMult            0      0.00%     80.83% # Class of committed instruction (Count)
system.cpu.commit.committedInstType_0::SimdMultAcc            0      0.00%     80.83% # Class of committed instruction (Count)
system.cpu.commit.committedInstType_0::SimdShift            0      0.00%     80.83% # Class of committed instruction (Count)
system.cpu.commit.committedInstType_0::SimdShiftAcc            0      0.00%     80.83% # Class of committed instruction (Count)
system.cpu.commit.committedInstType_0::SimdDiv            0      0.00%     80.83% # Class of committed instruction (Count)
system.cpu.commit.committedInstType_0::SimdSqrt            0      0.00%     80.83% # Class of committed instruction (Count)
system.cpu.commit.committedInstType_0::SimdFloatAdd            0      0.00%     80.83% # Class of committed instruction (Count)
system.cpu.commit.committedInstType_0::SimdFloatAlu            0      0.00%     80.83% # Class of committed instruction (Count)
system.cpu.commit.committedInstType_0::SimdFloatCmp            0      0.00%     80.83% # Class of committed instruction (Count)
system.cpu.commit.committedInstType_0::SimdFloatCvt            0      0.00%     80.83% # Class of committed instruction (Count)
system.cpu.commit.committedInstType_0::SimdFloatDiv            0      0.00%     80.83% # Class of committed instruction (Count)
system.cpu.commit.committedInstType_0::SimdFloatMisc            0      0.00%     80.83% # Class of committed instruction (Count)
system.cpu.commit.committedInstType_0::SimdFloatMult            0      0.00%     80.83% # Class of committed instruction (Count)
system.cpu.commit.committedInstType_0::SimdFloatMultAcc            0      0.00%     80.83% # Class of committed instruction (Count)
system.cpu.commit.committedInstType_0::SimdFloatSqrt            0      0.00%     80.83% # Class of committed instruction (Count)
system.cpu.commit.committedInstType_0::SimdReduceAdd            0      0.00%     80.83% # Class of committed instruction (Count)
system.cpu.commit.committedInstType_0::SimdReduceAlu            0      0.00%     80.83% # Class of committed instruction (Count)
system.cpu.commit.committedInstType_0::SimdReduceCmp            0      0.00%     80.83% # Class of committed instruction (Count)
system.cpu.commit.committedInstType_0::SimdFloatReduceAdd            0      0.00%     80.83% # Class of committed instruction (Count)
system.cpu.commit.committedInstType_0::SimdFloatReduceCmp            0      0.00%     80.83% # Class of committed instruction (Count)
system.cpu.commit.committedInstType_0::SimdAes            0      0.00%     80.83% # Class of committed instruction (Count)
system.cpu.commit.committedInstType_0::SimdAesMix            0      0.00%     80.83% # Class of committed instruction (Count)
system.cpu.commit.committedInstType_0::SimdSha1Hash            0      0.00%     80.83% # Class of committed instruction (Count)
system.cpu.commit.committedInstType_0::SimdSha1Hash2            0      0.00%     80.83% # Class of committed instruction (Count)
system.cpu.commit.committedInstType_0::SimdSha256Hash            0      0.00%     80.83% # Class of committed instruction (Count)
system.cpu.commit.committedInstType_0::SimdSha256Hash2            0      0.00%     80.83% # Class of committed instruction (Count)
system.cpu.commit.committedInstType_0::SimdShaSigma2            0      0.00%     80.83% # Class of committed instruction (Count)
system.cpu.commit.committedInstType_0::SimdShaSigma3            0      0.00%     80.83% # Class of committed instruction (Count)
system.cpu.commit.committedInstType_0::SimdPredAlu            0      0.00%     80.83% # Class of committed instruction (Count)
system.cpu.commit.committedInstType_0::MemRead    120667805     10.25%     91.07% # Class of committed instruction (Count)
system.cpu.commit.committedInstType_0::MemWrite    105121302      8.93%    100.00% # Class of committed instruction (Count)
system.cpu.commit.committedInstType_0::FloatMemRead            0      0.00%    100.00% # Class of committed instruction (Count)
system.cpu.commit.committedInstType_0::FloatMemWrite            0      0.00%    100.00% # Class of committed instruction (Count)
system.cpu.commit.committedInstType_0::IprAccess            0      0.00%    100.00% # Class of committed instruction (Count)
system.cpu.commit.committedInstType_0::InstPrefetch            0      0.00%    100.00% # Class of committed instruction (Count)
system.cpu.commit.committedInstType_0::total   1177819171                       # Class of committed instruction (Count)
system.cpu.commit.commitEligibleSamples      65794249                       # number cycles where commit BW limit reached (Cycle)
system.cpu.dcache.demandHits::cpu.data      206151536                       # number of demand (read+write) hits (Count)
system.cpu.dcache.demandHits::total         206151536                       # number of demand (read+write) hits (Count)
system.cpu.dcache.overallHits::cpu.data     206151536                       # number of overall hits (Count)
system.cpu.dcache.overallHits::total        206151536                       # number of overall hits (Count)
system.cpu.dcache.demandMisses::cpu.data      3617044                       # number of demand (read+write) misses (Count)
system.cpu.dcache.demandMisses::total         3617044                       # number of demand (read+write) misses (Count)
system.cpu.dcache.overallMisses::cpu.data      3617044                       # number of overall misses (Count)
system.cpu.dcache.overallMisses::total        3617044                       # number of overall misses (Count)
system.cpu.dcache.demandMissLatency::cpu.data 265967945999                       # number of demand (read+write) miss ticks (Tick)
system.cpu.dcache.demandMissLatency::total 265967945999                       # number of demand (read+write) miss ticks (Tick)
system.cpu.dcache.overallMissLatency::cpu.data 265967945999                       # number of overall miss ticks (Tick)
system.cpu.dcache.overallMissLatency::total 265967945999                       # number of overall miss ticks (Tick)
system.cpu.dcache.demandAccesses::cpu.data    209768580                       # number of demand (read+write) accesses (Count)
system.cpu.dcache.demandAccesses::total     209768580                       # number of demand (read+write) accesses (Count)
system.cpu.dcache.overallAccesses::cpu.data    209768580                       # number of overall (read+write) accesses (Count)
system.cpu.dcache.overallAccesses::total    209768580                       # number of overall (read+write) accesses (Count)
system.cpu.dcache.demandMissRate::cpu.data     0.017243                       # miss rate for demand accesses (Ratio)
system.cpu.dcache.demandMissRate::total      0.017243                       # miss rate for demand accesses (Ratio)
system.cpu.dcache.overallMissRate::cpu.data     0.017243                       # miss rate for overall accesses (Ratio)
system.cpu.dcache.overallMissRate::total     0.017243                       # miss rate for overall accesses (Ratio)
system.cpu.dcache.demandAvgMissLatency::cpu.data 73531.852529                       # average overall miss latency in ticks ((Tick/Count))
system.cpu.dcache.demandAvgMissLatency::total 73531.852529                       # average overall miss latency in ticks ((Tick/Count))
system.cpu.dcache.overallAvgMissLatency::cpu.data 73531.852529                       # average overall miss latency ((Tick/Count))
system.cpu.dcache.overallAvgMissLatency::total 73531.852529                       # average overall miss latency ((Tick/Count))
system.cpu.dcache.blockedCycles::no_mshrs          417                       # number of cycles access was blocked (Cycle)
system.cpu.dcache.blockedCycles::no_targets            0                       # number of cycles access was blocked (Cycle)
system.cpu.dcache.blockedCauses::no_mshrs           10                       # number of times access was blocked (Count)
system.cpu.dcache.blockedCauses::no_targets            0                       # number of times access was blocked (Count)
system.cpu.dcache.avgBlocked::no_mshrs      41.700000                       # average number of cycles each access was blocked ((Cycle/Count))
system.cpu.dcache.avgBlocked::no_targets          nan                       # average number of cycles each access was blocked ((Cycle/Count))
system.cpu.dcache.writebacks::writebacks       524419                       # number of writebacks (Count)
system.cpu.dcache.writebacks::total            524419                       # number of writebacks (Count)
system.cpu.dcache.demandMshrHits::cpu.data      1573682                       # number of demand (read+write) MSHR hits (Count)
system.cpu.dcache.demandMshrHits::total       1573682                       # number of demand (read+write) MSHR hits (Count)
system.cpu.dcache.overallMshrHits::cpu.data      1573682                       # number of overall MSHR hits (Count)
system.cpu.dcache.overallMshrHits::total      1573682                       # number of overall MSHR hits (Count)
system.cpu.dcache.demandMshrMisses::cpu.data      2043362                       # number of demand (read+write) MSHR misses (Count)
system.cpu.dcache.demandMshrMisses::total      2043362                       # number of demand (read+write) MSHR misses (Count)
system.cpu.dcache.overallMshrMisses::cpu.data      2043362                       # number of overall MSHR misses (Count)
system.cpu.dcache.overallMshrMisses::total      2043362                       # number of overall MSHR misses (Count)
system.cpu.dcache.demandMshrMissLatency::cpu.data 176366701999                       # number of demand (read+write) MSHR miss ticks (Tick)
system.cpu.dcache.demandMshrMissLatency::total 176366701999                       # number of demand (read+write) MSHR miss ticks (Tick)
system.cpu.dcache.overallMshrMissLatency::cpu.data 176366701999                       # number of overall MSHR miss ticks (Tick)
system.cpu.dcache.overallMshrMissLatency::total 176366701999                       # number of overall MSHR miss ticks (Tick)
system.cpu.dcache.demandMshrMissRate::cpu.data     0.009741                       # mshr miss ratio for demand accesses (Ratio)
system.cpu.dcache.demandMshrMissRate::total     0.009741                       # mshr miss ratio for demand accesses (Ratio)
system.cpu.dcache.overallMshrMissRate::cpu.data     0.009741                       # mshr miss ratio for overall accesses (Ratio)
system.cpu.dcache.overallMshrMissRate::total     0.009741                       # mshr miss ratio for overall accesses (Ratio)
system.cpu.dcache.demandAvgMshrMissLatency::cpu.data 86312.020092                       # average overall mshr miss latency ((Tick/Count))
system.cpu.dcache.demandAvgMshrMissLatency::total 86312.020092                       # average overall mshr miss latency ((Tick/Count))
system.cpu.dcache.overallAvgMshrMissLatency::cpu.data 86312.020092                       # average overall mshr miss latency ((Tick/Count))
system.cpu.dcache.overallAvgMshrMissLatency::total 86312.020092                       # average overall mshr miss latency ((Tick/Count))
system.cpu.dcache.replacements                2042850                       # number of replacements (Count)
system.cpu.dcache.LoadLockedReq.hits::cpu.data           45                       # number of LoadLockedReq hits (Count)
system.cpu.dcache.LoadLockedReq.hits::total           45                       # number of LoadLockedReq hits (Count)
system.cpu.dcache.LoadLockedReq.misses::cpu.data            3                       # number of LoadLockedReq misses (Count)
system.cpu.dcache.LoadLockedReq.misses::total            3                       # number of LoadLockedReq misses (Count)
system.cpu.dcache.LoadLockedReq.missLatency::cpu.data       145500                       # number of LoadLockedReq miss ticks (Tick)
system.cpu.dcache.LoadLockedReq.missLatency::total       145500                       # number of LoadLockedReq miss ticks (Tick)
system.cpu.dcache.LoadLockedReq.accesses::cpu.data           48                       # number of LoadLockedReq accesses(hits+misses) (Count)
system.cpu.dcache.LoadLockedReq.accesses::total           48                       # number of LoadLockedReq accesses(hits+misses) (Count)
system.cpu.dcache.LoadLockedReq.missRate::cpu.data     0.062500                       # miss rate for LoadLockedReq accesses (Ratio)
system.cpu.dcache.LoadLockedReq.missRate::total     0.062500                       # miss rate for LoadLockedReq accesses (Ratio)
system.cpu.dcache.LoadLockedReq.avgMissLatency::cpu.data        48500                       # average LoadLockedReq miss latency ((Tick/Count))
system.cpu.dcache.LoadLockedReq.avgMissLatency::total        48500                       # average LoadLockedReq miss latency ((Tick/Count))
system.cpu.dcache.LoadLockedReq.mshrHits::cpu.data            3                       # number of LoadLockedReq MSHR hits (Count)
system.cpu.dcache.LoadLockedReq.mshrHits::total            3                       # number of LoadLockedReq MSHR hits (Count)
system.cpu.dcache.ReadReq.hits::cpu.data    103128182                       # number of ReadReq hits (Count)
system.cpu.dcache.ReadReq.hits::total       103128182                       # number of ReadReq hits (Count)
system.cpu.dcache.ReadReq.misses::cpu.data      1519152                       # number of ReadReq misses (Count)
system.cpu.dcache.ReadReq.misses::total       1519152                       # number of ReadReq misses (Count)
system.cpu.dcache.ReadReq.missLatency::cpu.data 138286143500                       # number of ReadReq miss ticks (Tick)
system.cpu.dcache.ReadReq.missLatency::total 138286143500                       # number of ReadReq miss ticks (Tick)
system.cpu.dcache.ReadReq.accesses::cpu.data    104647334                       # number of ReadReq accesses(hits+misses) (Count)
system.cpu.dcache.ReadReq.accesses::total    104647334                       # number of ReadReq accesses(hits+misses) (Count)
system.cpu.dcache.ReadReq.missRate::cpu.data     0.014517                       # miss rate for ReadReq accesses (Ratio)
system.cpu.dcache.ReadReq.missRate::total     0.014517                       # miss rate for ReadReq accesses (Ratio)
system.cpu.dcache.ReadReq.avgMissLatency::cpu.data 91028.510314                       # average ReadReq miss latency ((Tick/Count))
system.cpu.dcache.ReadReq.avgMissLatency::total 91028.510314                       # average ReadReq miss latency ((Tick/Count))
system.cpu.dcache.ReadReq.mshrHits::cpu.data          317                       # number of ReadReq MSHR hits (Count)
system.cpu.dcache.ReadReq.mshrHits::total          317                       # number of ReadReq MSHR hits (Count)
system.cpu.dcache.ReadReq.mshrMisses::cpu.data      1518835                       # number of ReadReq MSHR misses (Count)
system.cpu.dcache.ReadReq.mshrMisses::total      1518835                       # number of ReadReq MSHR misses (Count)
system.cpu.dcache.ReadReq.mshrMissLatency::cpu.data 136743079500                       # number of ReadReq MSHR miss ticks (Tick)
system.cpu.dcache.ReadReq.mshrMissLatency::total 136743079500                       # number of ReadReq MSHR miss ticks (Tick)
system.cpu.dcache.ReadReq.mshrMissRate::cpu.data     0.014514                       # mshr miss rate for ReadReq accesses (Ratio)
system.cpu.dcache.ReadReq.mshrMissRate::total     0.014514                       # mshr miss rate for ReadReq accesses (Ratio)
system.cpu.dcache.ReadReq.avgMshrMissLatency::cpu.data 90031.556752                       # average ReadReq mshr miss latency ((Tick/Count))
system.cpu.dcache.ReadReq.avgMshrMissLatency::total 90031.556752                       # average ReadReq mshr miss latency ((Tick/Count))
system.cpu.dcache.StoreCondReq.hits::cpu.data           41                       # number of StoreCondReq hits (Count)
system.cpu.dcache.StoreCondReq.hits::total           41                       # number of StoreCondReq hits (Count)
system.cpu.dcache.StoreCondReq.accesses::cpu.data           41                       # number of StoreCondReq accesses(hits+misses) (Count)
system.cpu.dcache.StoreCondReq.accesses::total           41                       # number of StoreCondReq accesses(hits+misses) (Count)
system.cpu.dcache.WriteReq.hits::cpu.data    103023354                       # number of WriteReq hits (Count)
system.cpu.dcache.WriteReq.hits::total      103023354                       # number of WriteReq hits (Count)
system.cpu.dcache.WriteReq.misses::cpu.data      2097892                       # number of WriteReq misses (Count)
system.cpu.dcache.WriteReq.misses::total      2097892                       # number of WriteReq misses (Count)
system.cpu.dcache.WriteReq.missLatency::cpu.data 127681802499                       # number of WriteReq miss ticks (Tick)
system.cpu.dcache.WriteReq.missLatency::total 127681802499                       # number of WriteReq miss ticks (Tick)
system.cpu.dcache.WriteReq.accesses::cpu.data    105121246                       # number of WriteReq accesses(hits+misses) (Count)
system.cpu.dcache.WriteReq.accesses::total    105121246                       # number of WriteReq accesses(hits+misses) (Count)
system.cpu.dcache.WriteReq.missRate::cpu.data     0.019957                       # miss rate for WriteReq accesses (Ratio)
system.cpu.dcache.WriteReq.missRate::total     0.019957                       # miss rate for WriteReq accesses (Ratio)
system.cpu.dcache.WriteReq.avgMissLatency::cpu.data 60861.952140                       # average WriteReq miss latency ((Tick/Count))
system.cpu.dcache.WriteReq.avgMissLatency::total 60861.952140                       # average WriteReq miss latency ((Tick/Count))
system.cpu.dcache.WriteReq.mshrHits::cpu.data      1573365                       # number of WriteReq MSHR hits (Count)
system.cpu.dcache.WriteReq.mshrHits::total      1573365                       # number of WriteReq MSHR hits (Count)
system.cpu.dcache.WriteReq.mshrMisses::cpu.data       524527                       # number of WriteReq MSHR misses (Count)
system.cpu.dcache.WriteReq.mshrMisses::total       524527                       # number of WriteReq MSHR misses (Count)
system.cpu.dcache.WriteReq.mshrMissLatency::cpu.data  39623622499                       # number of WriteReq MSHR miss ticks (Tick)
system.cpu.dcache.WriteReq.mshrMissLatency::total  39623622499                       # number of WriteReq MSHR miss ticks (Tick)
system.cpu.dcache.WriteReq.mshrMissRate::cpu.data     0.004990                       # mshr miss rate for WriteReq accesses (Ratio)
system.cpu.dcache.WriteReq.mshrMissRate::total     0.004990                       # mshr miss rate for WriteReq accesses (Ratio)
system.cpu.dcache.WriteReq.avgMshrMissLatency::cpu.data 75541.626073                       # average WriteReq mshr miss latency ((Tick/Count))
system.cpu.dcache.WriteReq.avgMshrMissLatency::total 75541.626073                       # average WriteReq mshr miss latency ((Tick/Count))
system.cpu.dcache.power_state.pwrStateResidencyTicks::UNDEFINED 364991390000                       # Cumulative time (in ticks) in various power states (Tick)
system.cpu.dcache.tags.tagsInUse           511.910423                       # Average ticks per tags in use ((Tick/Count))
system.cpu.dcache.tags.totalRefs            208194984                       # Total number of references to valid blocks. (Count)
system.cpu.dcache.tags.sampledRefs            2043362                       # Sample count of references to valid blocks. (Count)
system.cpu.dcache.tags.avgRefs             101.888449                       # Average number of references to valid blocks. ((Count/Count))
system.cpu.dcache.tags.warmupTick              148500                       # The tick when the warmup percentage was hit. (Tick)
system.cpu.dcache.tags.occupancies::cpu.data   511.910423                       # Average occupied blocks per tick, per requestor ((Count/Tick))
system.cpu.dcache.tags.avgOccs::cpu.data     0.999825                       # Average percentage of cache occupancy ((Ratio/Tick))
system.cpu.dcache.tags.avgOccs::total        0.999825                       # Average percentage of cache occupancy ((Ratio/Tick))
system.cpu.dcache.tags.occupanciesTaskId::1024          512                       # Occupied blocks per task id (Count)
system.cpu.dcache.tags.ageTaskId_1024::0            3                       # Occupied blocks per task id, per block age (Count)
system.cpu.dcache.tags.ageTaskId_1024::2            4                       # Occupied blocks per task id, per block age (Count)
system.cpu.dcache.tags.ageTaskId_1024::3           32                       # Occupied blocks per task id, per block age (Count)
system.cpu.dcache.tags.ageTaskId_1024::4          473                       # Occupied blocks per task id, per block age (Count)
system.cpu.dcache.tags.ratioOccsTaskId::1024            1                       # Ratio of occupied blocks and all blocks, per task id (Ratio)
system.cpu.dcache.tags.tagAccesses          841118038                       # Number of tag accesses (Count)
system.cpu.dcache.tags.dataAccesses         841118038                       # Number of data accesses (Count)
system.cpu.dcache.tags.power_state.pwrStateResidencyTicks::UNDEFINED 364991390000                       # Cumulative time (in ticks) in various power states (Tick)
system.cpu.decode.idleCycles                254071969                       # Number of cycles decode is idle (Cycle)
system.cpu.decode.blockedCycles             214705257                       # Number of cycles decode is blocked (Cycle)
system.cpu.decode.runCycles                 200550084                       # Number of cycles decode is running (Cycle)
system.cpu.decode.unblockCycles              32276226                       # Number of cycles decode is unblocking (Cycle)
system.cpu.decode.squashCycles               28357547                       # Number of cycles decode is squashing (Cycle)
system.cpu.decode.branchResolved             75839696                       # Number of times decode resolved a branch (Count)
system.cpu.decode.branchMispred                   218                       # Number of times decode detected a branch misprediction (Count)
system.cpu.decode.decodedInsts             1338482872                       # Number of instructions handled by decode (Count)
system.cpu.decode.squashedInsts                   744                       # Number of squashed instructions handled by decode (Count)
system.cpu.fetch.icacheStallCycles          157889870                       # Number of cycles fetch is stalled on an Icache miss (Cycle)
system.cpu.fetch.insts                     1128636659                       # Number of instructions fetch has processed (Count)
system.cpu.fetch.branches                   153177417                       # Number of branches that fetch encountered (Count)
system.cpu.fetch.predictedBranches          104938927                       # Number of branches that fetch has predicted taken (Count)
system.cpu.fetch.cycles                     368945211                       # Number of cycles fetch has run and was not squashing or blocked (Cycle)
system.cpu.fetch.squashCycles                56715502                       # Number of cycles fetch has spent squashing (Cycle)
system.cpu.fetch.miscStallCycles             25607341                       # Number of cycles fetch has spent waiting on interrupts, or bad addresses, or out of MSHRs (Cycle)
system.cpu.fetch.pendingTrapStallCycles     149160855                       # Number of stall cycles due to pending traps (Cycle)
system.cpu.fetch.icacheWaitRetryStallCycles           55                       # Number of stall cycles due to full MSHR (Cycle)
system.cpu.fetch.cacheLines                 155679584                       # Number of cache lines fetched (Count)
system.cpu.fetch.icacheSquashes                 65647                       # Number of outstanding Icache misses that were squashed (Count)
system.cpu.fetch.nisnDist::samples          729961083                       # Number of instructions fetched each cycle (Total) (Count)
system.cpu.fetch.nisnDist::mean              1.812670                       # Number of instructions fetched each cycle (Total) (Count)
system.cpu.fetch.nisnDist::stdev             2.975497                       # Number of instructions fetched each cycle (Total) (Count)
system.cpu.fetch.nisnDist::underflows               0      0.00%      0.00% # Number of instructions fetched each cycle (Total) (Count)
system.cpu.fetch.nisnDist::0                496640022     68.04%     68.04% # Number of instructions fetched each cycle (Total) (Count)
system.cpu.fetch.nisnDist::1                 16008316      2.19%     70.23% # Number of instructions fetched each cycle (Total) (Count)
system.cpu.fetch.nisnDist::2                 14150806      1.94%     72.17% # Number of instructions fetched each cycle (Total) (Count)
system.cpu.fetch.nisnDist::3                 31169706      4.27%     76.44% # Number of instructions fetched each cycle (Total) (Count)
system.cpu.fetch.nisnDist::4                 13546954      1.86%     78.29% # Number of instructions fetched each cycle (Total) (Count)
system.cpu.fetch.nisnDist::5                 25315012      3.47%     81.76% # Number of instructions fetched each cycle (Total) (Count)
system.cpu.fetch.nisnDist::6                 22420393      3.07%     84.83% # Number of instructions fetched each cycle (Total) (Count)
system.cpu.fetch.nisnDist::7                 15604962      2.14%     86.97% # Number of instructions fetched each cycle (Total) (Count)
system.cpu.fetch.nisnDist::8                 95104912     13.03%    100.00% # Number of instructions fetched each cycle (Total) (Count)
system.cpu.fetch.nisnDist::overflows                0      0.00%    100.00% # Number of instructions fetched each cycle (Total) (Count)
system.cpu.fetch.nisnDist::min_value                0                       # Number of instructions fetched each cycle (Total) (Count)
system.cpu.fetch.nisnDist::max_value                8                       # Number of instructions fetched each cycle (Total) (Count)
system.cpu.fetch.nisnDist::total            729961083                       # Number of instructions fetched each cycle (Total) (Count)
system.cpu.fetch.branchRate                  0.209837                       # Number of branch fetches per cycle (Ratio)
system.cpu.fetch.rate                        1.546114                       # Number of inst fetches per cycle ((Count/Cycle))
system.cpu.icache.demandHits::cpu.inst      155679108                       # number of demand (read+write) hits (Count)
system.cpu.icache.demandHits::total         155679108                       # number of demand (read+write) hits (Count)
system.cpu.icache.overallHits::cpu.inst     155679108                       # number of overall hits (Count)
system.cpu.icache.overallHits::total        155679108                       # number of overall hits (Count)
system.cpu.icache.demandMisses::cpu.inst          474                       # number of demand (read+write) misses (Count)
system.cpu.icache.demandMisses::total             474                       # number of demand (read+write) misses (Count)
system.cpu.icache.overallMisses::cpu.inst          474                       # number of overall misses (Count)
system.cpu.icache.overallMisses::total            474                       # number of overall misses (Count)
system.cpu.icache.demandMissLatency::cpu.inst     33048498                       # number of demand (read+write) miss ticks (Tick)
system.cpu.icache.demandMissLatency::total     33048498                       # number of demand (read+write) miss ticks (Tick)
system.cpu.icache.overallMissLatency::cpu.inst     33048498                       # number of overall miss ticks (Tick)
system.cpu.icache.overallMissLatency::total     33048498                       # number of overall miss ticks (Tick)
system.cpu.icache.demandAccesses::cpu.inst    155679582                       # number of demand (read+write) accesses (Count)
system.cpu.icache.demandAccesses::total     155679582                       # number of demand (read+write) accesses (Count)
system.cpu.icache.overallAccesses::cpu.inst    155679582                       # number of overall (read+write) accesses (Count)
system.cpu.icache.overallAccesses::total    155679582                       # number of overall (read+write) accesses (Count)
system.cpu.icache.demandMissRate::cpu.inst     0.000003                       # miss rate for demand accesses (Ratio)
system.cpu.icache.demandMissRate::total      0.000003                       # miss rate for demand accesses (Ratio)
system.cpu.icache.overallMissRate::cpu.inst     0.000003                       # miss rate for overall accesses (Ratio)
system.cpu.icache.overallMissRate::total     0.000003                       # miss rate for overall accesses (Ratio)
system.cpu.icache.demandAvgMissLatency::cpu.inst 69722.569620                       # average overall miss latency in ticks ((Tick/Count))
system.cpu.icache.demandAvgMissLatency::total 69722.569620                       # average overall miss latency in ticks ((Tick/Count))
system.cpu.icache.overallAvgMissLatency::cpu.inst 69722.569620                       # average overall miss latency ((Tick/Count))
system.cpu.icache.overallAvgMissLatency::total 69722.569620                       # average overall miss latency ((Tick/Count))
system.cpu.icache.blockedCycles::no_mshrs          416                       # number of cycles access was blocked (Cycle)
system.cpu.icache.blockedCycles::no_targets            0                       # number of cycles access was blocked (Cycle)
system.cpu.icache.blockedCauses::no_mshrs           13                       # number of times access was blocked (Count)
system.cpu.icache.blockedCauses::no_targets            0                       # number of times access was blocked (Count)
system.cpu.icache.avgBlocked::no_mshrs             32                       # average number of cycles each access was blocked ((Cycle/Count))
system.cpu.icache.avgBlocked::no_targets          nan                       # average number of cycles each access was blocked ((Cycle/Count))
system.cpu.icache.demandMshrHits::cpu.inst          116                       # number of demand (read+write) MSHR hits (Count)
system.cpu.icache.demandMshrHits::total           116                       # number of demand (read+write) MSHR hits (Count)
system.cpu.icache.overallMshrHits::cpu.inst          116                       # number of overall MSHR hits (Count)
system.cpu.icache.overallMshrHits::total          116                       # number of overall MSHR hits (Count)
system.cpu.icache.demandMshrMisses::cpu.inst          358                       # number of demand (read+write) MSHR misses (Count)
system.cpu.icache.demandMshrMisses::total          358                       # number of demand (read+write) MSHR misses (Count)
system.cpu.icache.overallMshrMisses::cpu.inst          358                       # number of overall MSHR misses (Count)
system.cpu.icache.overallMshrMisses::total          358                       # number of overall MSHR misses (Count)
system.cpu.icache.demandMshrMissLatency::cpu.inst     25752498                       # number of demand (read+write) MSHR miss ticks (Tick)
system.cpu.icache.demandMshrMissLatency::total     25752498                       # number of demand (read+write) MSHR miss ticks (Tick)
system.cpu.icache.overallMshrMissLatency::cpu.inst     25752498                       # number of overall MSHR miss ticks (Tick)
system.cpu.icache.overallMshrMissLatency::total     25752498                       # number of overall MSHR miss ticks (Tick)
system.cpu.icache.demandMshrMissRate::cpu.inst     0.000002                       # mshr miss ratio for demand accesses (Ratio)
system.cpu.icache.demandMshrMissRate::total     0.000002                       # mshr miss ratio for demand accesses (Ratio)
system.cpu.icache.overallMshrMissRate::cpu.inst     0.000002                       # mshr miss ratio for overall accesses (Ratio)
system.cpu.icache.overallMshrMissRate::total     0.000002                       # mshr miss ratio for overall accesses (Ratio)
system.cpu.icache.demandAvgMshrMissLatency::cpu.inst 71934.351955                       # average overall mshr miss latency ((Tick/Count))
system.cpu.icache.demandAvgMshrMissLatency::total 71934.351955                       # average overall mshr miss latency ((Tick/Count))
system.cpu.icache.overallAvgMshrMissLatency::cpu.inst 71934.351955                       # average overall mshr miss latency ((Tick/Count))
system.cpu.icache.overallAvgMshrMissLatency::total 71934.351955                       # average overall mshr miss latency ((Tick/Count))
system.cpu.icache.replacements                     20                       # number of replacements (Count)
system.cpu.icache.ReadReq.hits::cpu.inst    155679108                       # number of ReadReq hits (Count)
system.cpu.icache.ReadReq.hits::total       155679108                       # number of ReadReq hits (Count)
system.cpu.icache.ReadReq.misses::cpu.inst          474                       # number of ReadReq misses (Count)
system.cpu.icache.ReadReq.misses::total           474                       # number of ReadReq misses (Count)
system.cpu.icache.ReadReq.missLatency::cpu.inst     33048498                       # number of ReadReq miss ticks (Tick)
system.cpu.icache.ReadReq.missLatency::total     33048498                       # number of ReadReq miss ticks (Tick)
system.cpu.icache.ReadReq.accesses::cpu.inst    155679582                       # number of ReadReq accesses(hits+misses) (Count)
system.cpu.icache.ReadReq.accesses::total    155679582                       # number of ReadReq accesses(hits+misses) (Count)
system.cpu.icache.ReadReq.missRate::cpu.inst     0.000003                       # miss rate for ReadReq accesses (Ratio)
system.cpu.icache.ReadReq.missRate::total     0.000003                       # miss rate for ReadReq accesses (Ratio)
system.cpu.icache.ReadReq.avgMissLatency::cpu.inst 69722.569620                       # average ReadReq miss latency ((Tick/Count))
system.cpu.icache.ReadReq.avgMissLatency::total 69722.569620                       # average ReadReq miss latency ((Tick/Count))
system.cpu.icache.ReadReq.mshrHits::cpu.inst          116                       # number of ReadReq MSHR hits (Count)
system.cpu.icache.ReadReq.mshrHits::total          116                       # number of ReadReq MSHR hits (Count)
system.cpu.icache.ReadReq.mshrMisses::cpu.inst          358                       # number of ReadReq MSHR misses (Count)
system.cpu.icache.ReadReq.mshrMisses::total          358                       # number of ReadReq MSHR misses (Count)
system.cpu.icache.ReadReq.mshrMissLatency::cpu.inst     25752498                       # number of ReadReq MSHR miss ticks (Tick)
system.cpu.icache.ReadReq.mshrMissLatency::total     25752498                       # number of ReadReq MSHR miss ticks (Tick)
system.cpu.icache.ReadReq.mshrMissRate::cpu.inst     0.000002                       # mshr miss rate for ReadReq accesses (Ratio)
system.cpu.icache.ReadReq.mshrMissRate::total     0.000002                       # mshr miss rate for ReadReq accesses (Ratio)
system.cpu.icache.ReadReq.avgMshrMissLatency::cpu.inst 71934.351955                       # average ReadReq mshr miss latency ((Tick/Count))
system.cpu.icache.ReadReq.avgMshrMissLatency::total 71934.351955                       # average ReadReq mshr miss latency ((Tick/Count))
system.cpu.icache.power_state.pwrStateResidencyTicks::UNDEFINED 364991390000                       # Cumulative time (in ticks) in various power states (Tick)
system.cpu.icache.tags.tagsInUse           328.685528                       # Average ticks per tags in use ((Tick/Count))
system.cpu.icache.tags.totalRefs            155679466                       # Total number of references to valid blocks. (Count)
system.cpu.icache.tags.sampledRefs                358                       # Sample count of references to valid blocks. (Count)
system.cpu.icache.tags.avgRefs           434858.843575                       # Average number of references to valid blocks. ((Count/Count))
system.cpu.icache.tags.warmupTick               81500                       # The tick when the warmup percentage was hit. (Tick)
system.cpu.icache.tags.occupancies::cpu.inst   328.685528                       # Average occupied blocks per tick, per requestor ((Count/Tick))
system.cpu.icache.tags.avgOccs::cpu.inst     0.641964                       # Average percentage of cache occupancy ((Ratio/Tick))
system.cpu.icache.tags.avgOccs::total        0.641964                       # Average percentage of cache occupancy ((Ratio/Tick))
system.cpu.icache.tags.occupanciesTaskId::1024          338                       # Occupied blocks per task id (Count)
system.cpu.icache.tags.ageTaskId_1024::4          338                       # Occupied blocks per task id, per block age (Count)
system.cpu.icache.tags.ratioOccsTaskId::1024     0.660156                       # Ratio of occupied blocks and all blocks, per task id (Ratio)
system.cpu.icache.tags.tagAccesses          622718686                       # Number of tag accesses (Count)
system.cpu.icache.tags.dataAccesses         622718686                       # Number of data accesses (Count)
system.cpu.icache.tags.power_state.pwrStateResidencyTicks::UNDEFINED 364991390000                       # Cumulative time (in ticks) in various power states (Tick)
system.cpu.iew.idleCycles                           0                       # Number of cycles IEW is idle (Cycle)
system.cpu.iew.squashCycles                  28357547                       # Number of cycles IEW is squashing (Cycle)
system.cpu.iew.blockCycles                  102554210                       # Number of cycles IEW is blocking (Cycle)
system.cpu.iew.unblockCycles                   499062                       # Number of cycles IEW is unblocking (Cycle)
system.cpu.iew.dispatchedInsts             1318275467                       # Number of instructions dispatched to IQ (Count)
system.cpu.iew.dispSquashedInsts              2089877                       # Number of squashed instructions skipped by dispatch (Count)
system.cpu.iew.dispLoadInsts                129993978                       # Number of dispatched load instructions (Count)
system.cpu.iew.dispStoreInsts               105836412                       # Number of dispatched store instructions (Count)
system.cpu.iew.dispNonSpecInsts                    71                       # Number of dispatched non-speculative instructions (Count)
system.cpu.iew.iqFullEvents                     82288                       # Number of times the IQ has become full, causing a stall (Count)
system.cpu.iew.lsqFullEvents                        5                       # Number of times the LSQ has become full, causing a stall (Count)
system.cpu.iew.memOrderViolationEvents           3939                       # Number of memory order violations (Count)
system.cpu.iew.predictedTakenIncorrect        4270063                       # Number of branches that were predicted taken incorrectly (Count)
system.cpu.iew.predictedNotTakenIncorrect     26156067                       # Number of branches that were predicted not taken incorrectly (Count)
system.cpu.iew.branchMispredicts             30426130                       # Number of branch mispredicts detected at execute (Count)
system.cpu.iew.instsToCommit               1247710739                       # Cumulative count of insts sent to commit (Count)
system.cpu.iew.writebackCount              1223664056                       # Cumulative count of insts written-back (Count)
system.cpu.iew.producerInst                 901015105                       # Number of instructions producing a value (Count)
system.cpu.iew.consumerInst                2479831812                       # Number of instructions consuming a value (Count)
system.cpu.iew.wbRate                        1.676292                       # Insts written-back per cycle ((Count/Cycle))
system.cpu.iew.wbFanout                      0.363337                       # Average fanout of values written-back ((Count/Count))
system.cpu.lsq0.forwLoads                    19963366                       # Number of loads that had data forwarded from stores (Count)
system.cpu.lsq0.squashedLoads                 9326167                       # Number of loads squashed (Count)
system.cpu.lsq0.ignoredResponses                  976                       # Number of memory responses ignored because the instruction is squashed (Count)
system.cpu.lsq0.memOrderViolation                3939                       # Number of memory ordering violations (Count)
system.cpu.lsq0.squashedStores                 715107                       # Number of stores squashed (Count)
system.cpu.lsq0.rescheduledLoads             29842713                       # Number of loads that were rescheduled (Count)
system.cpu.lsq0.blockedByCache                      7                       # Number of times an access to memory failed due to the cache being blocked (Count)
system.cpu.lsq0.loadToUse::samples          120667805                       # Distribution of cycle latency between the first time a load is issued and its completion (Unspecified)
system.cpu.lsq0.loadToUse::mean              6.250454                       # Distribution of cycle latency between the first time a load is issued and its completion (Unspecified)
system.cpu.lsq0.loadToUse::stdev            21.742748                       # Distribution of cycle latency between the first time a load is issued and its completion (Unspecified)
system.cpu.lsq0.loadToUse::0-9              115936642     96.08%     96.08% # Distribution of cycle latency between the first time a load is issued and its completion (Unspecified)
system.cpu.lsq0.loadToUse::10-19              3211235      2.66%     98.74% # Distribution of cycle latency between the first time a load is issued and its completion (Unspecified)
system.cpu.lsq0.loadToUse::20-29                  109      0.00%     98.74% # Distribution of cycle latency between the first time a load is issued and its completion (Unspecified)
system.cpu.lsq0.loadToUse::40-49                    1      0.00%     98.74% # Distribution of cycle latency between the first time a load is issued and its completion (Unspecified)
system.cpu.lsq0.loadToUse::50-59                    1      0.00%     98.74% # Distribution of cycle latency between the first time a load is issued and its completion (Unspecified)
system.cpu.lsq0.loadToUse::90-99                    3      0.00%     98.74% # Distribution of cycle latency between the first time a load is issued and its completion (Unspecified)
system.cpu.lsq0.loadToUse::100-109                  1      0.00%     98.74% # Distribution of cycle latency between the first time a load is issued and its completion (Unspecified)
system.cpu.lsq0.loadToUse::110-119                  5      0.00%     98.74% # Distribution of cycle latency between the first time a load is issued and its completion (Unspecified)
system.cpu.lsq0.loadToUse::120-129                 15      0.00%     98.74% # Distribution of cycle latency between the first time a load is issued and its completion (Unspecified)
system.cpu.lsq0.loadToUse::130-139                261      0.00%     98.74% # Distribution of cycle latency between the first time a load is issued and its completion (Unspecified)
system.cpu.lsq0.loadToUse::140-149                 26      0.00%     98.74% # Distribution of cycle latency between the first time a load is issued and its completion (Unspecified)
system.cpu.lsq0.loadToUse::150-159                 17      0.00%     98.74% # Distribution of cycle latency between the first time a load is issued and its completion (Unspecified)
system.cpu.lsq0.loadToUse::160-169             830698      0.69%     99.43% # Distribution of cycle latency between the first time a load is issued and its completion (Unspecified)
system.cpu.lsq0.loadToUse::170-179                573      0.00%     99.43% # Distribution of cycle latency between the first time a load is issued and its completion (Unspecified)
system.cpu.lsq0.loadToUse::180-189             659994      0.55%     99.98% # Distribution of cycle latency between the first time a load is issued and its completion (Unspecified)
system.cpu.lsq0.loadToUse::190-199                220      0.00%     99.98% # Distribution of cycle latency between the first time a load is issued and its completion (Unspecified)
system.cpu.lsq0.loadToUse::200-209                719      0.00%     99.98% # Distribution of cycle latency between the first time a load is issued and its completion (Unspecified)
system.cpu.lsq0.loadToUse::210-219                 59      0.00%     99.98% # Distribution of cycle latency between the first time a load is issued and its completion (Unspecified)
system.cpu.lsq0.loadToUse::220-229                152      0.00%     99.98% # Distribution of cycle latency between the first time a load is issued and its completion (Unspecified)
system.cpu.lsq0.loadToUse::230-239                 37      0.00%     99.98% # Distribution of cycle latency between the first time a load is issued and its completion (Unspecified)
system.cpu.lsq0.loadToUse::240-249                 64      0.00%     99.98% # Distribution of cycle latency between the first time a load is issued and its completion (Unspecified)
system.cpu.lsq0.loadToUse::250-259                 46      0.00%     99.98% # Distribution of cycle latency between the first time a load is issued and its completion (Unspecified)
[...]
system.mem_ctrl.dram.perBankRdBursts::7         63788                       # Per bank write bursts (Count)
system.mem_ctrl.dram.perBankRdBursts::8         63794                       # Per bank write bursts (Count)
system.mem_ctrl.dram.perBankRdBursts::9         63851                       # Per bank write bursts (Count)
system.mem_ctrl.dram.perBankRdBursts::10        63811                       # Per bank write bursts (Count)
system.mem_ctrl.dram.perBankRdBursts::11        63804                       # Per bank write bursts (Count)
system.mem_ctrl.dram.perBankRdBursts::12        63789                       # Per bank write bursts (Count)
system.mem_ctrl.dram.perBankRdBursts::13        63815                       # Per bank write bursts (Count)
system.mem_ctrl.dram.perBankRdBursts::14        63798                       # Per bank write bursts (Count)
system.mem_ctrl.dram.perBankRdBursts::15        63790                       # Per bank write bursts (Count)
system.mem_ctrl.dram.perBankRdBursts::16        63784                       # Per bank write bursts (Count)
system.mem_ctrl.dram.perBankRdBursts::17        63784                       # Per bank write bursts (Count)
system.mem_ctrl.dram.perBankRdBursts::18        63788                       # Per bank write bursts (Count)
system.mem_ctrl.dram.perBankRdBursts::19        63785                       # Per bank write bursts (Count)
system.mem_ctrl.dram.perBankRdBursts::20        63791                       # Per bank write bursts (Count)
system.mem_ctrl.dram.perBankRdBursts::21        63784                       # Per bank write bursts (Count)
system.mem_ctrl.dram.perBankRdBursts::22        63784                       # Per bank write bursts (Count)
system.mem_ctrl.dram.perBankRdBursts::23        63784                       # Per bank write bursts (Count)
system.mem_ctrl.dram.perBankRdBursts::24        63784                       # Per bank write bursts (Count)
system.mem_ctrl.dram.perBankRdBursts::25        63784                       # Per bank write bursts (Count)
system.mem_ctrl.dram.perBankRdBursts::26        63787                       # Per bank write bursts (Count)
system.mem_ctrl.dram.perBankRdBursts::27        63785                       # Per bank write bursts (Count)
system.mem_ctrl.dram.perBankRdBursts::28        63784                       # Per bank write bursts (Count)
system.mem_ctrl.dram.perBankRdBursts::29        63821                       # Per bank write bursts (Count)
system.mem_ctrl.dram.perBankRdBursts::30        63798                       # Per bank write bursts (Count)
system.mem_ctrl.dram.perBankRdBursts::31        63810                       # Per bank write bursts (Count)
system.mem_ctrl.dram.perBankWrBursts::0         16394                       # Per bank write bursts (Count)
system.mem_ctrl.dram.perBankWrBursts::1         16387                       # Per bank write bursts (Count)
system.mem_ctrl.dram.perBankWrBursts::2         16513                       # Per bank write bursts (Count)
system.mem_ctrl.dram.perBankWrBursts::3         16262                       # Per bank write bursts (Count)
system.mem_ctrl.dram.perBankWrBursts::4         16384                       # Per bank write bursts (Count)
system.mem_ctrl.dram.perBankWrBursts::5         16384                       # Per bank write bursts (Count)
system.mem_ctrl.dram.perBankWrBursts::6         16384                       # Per bank write bursts (Count)
system.mem_ctrl.dram.perBankWrBursts::7         16384                       # Per bank write bursts (Count)
system.mem_ctrl.dram.perBankWrBursts::8         16384                       # Per bank write bursts (Count)
system.mem_ctrl.dram.perBankWrBursts::9         16384                       # Per bank write bursts (Count)
system.mem_ctrl.dram.perBankWrBursts::10        16384                       # Per bank write bursts (Count)
system.mem_ctrl.dram.perBankWrBursts::11        16384                       # Per bank write bursts (Count)
system.mem_ctrl.dram.perBankWrBursts::12        16384                       # Per bank write bursts (Count)
system.mem_ctrl.dram.perBankWrBursts::13        16384                       # Per bank write bursts (Count)
system.mem_ctrl.dram.perBankWrBursts::14        16384                       # Per bank write bursts (Count)
system.mem_ctrl.dram.perBankWrBursts::15        16384                       # Per bank write bursts (Count)
system.mem_ctrl.dram.perBankWrBursts::16        16384                       # Per bank write bursts (Count)
system.mem_ctrl.dram.perBankWrBursts::17        16384                       # Per bank write bursts (Count)
system.mem_ctrl.dram.perBankWrBursts::18        16384                       # Per bank write bursts (Count)
system.mem_ctrl.dram.perBankWrBursts::19        16384                       # Per bank write bursts (Count)
system.mem_ctrl.dram.perBankWrBursts::20        16384                       # Per bank write bursts (Count)
system.mem_ctrl.dram.perBankWrBursts::21        16384                       # Per bank write bursts (Count)
system.mem_ctrl.dram.perBankWrBursts::22        16384                       # Per bank write bursts (Count)
system.mem_ctrl.dram.perBankWrBursts::23        16384                       # Per bank write bursts (Count)
system.mem_ctrl.dram.perBankWrBursts::24        16384                       # Per bank write bursts (Count)
system.mem_ctrl.dram.perBankWrBursts::25        16384                       # Per bank write bursts (Count)
system.mem_ctrl.dram.perBankWrBursts::26        16384                       # Per bank write bursts (Count)
system.mem_ctrl.dram.perBankWrBursts::27        16384                       # Per bank write bursts (Count)
system.mem_ctrl.dram.perBankWrBursts::28        16384                       # Per bank write bursts (Count)
system.mem_ctrl.dram.perBankWrBursts::29        16413                       # Per bank write bursts (Count)
system.mem_ctrl.dram.perBankWrBursts::30        16397                       # Per bank write bursts (Count)
system.mem_ctrl.dram.perBankWrBursts::31        16394                       # Per bank write bursts (Count)
system.mem_ctrl.dram.totQLat              44159019276                       # Total ticks spent queuing (Tick)
system.mem_ctrl.dram.totBusLat             6809255208                       # Total ticks spent in databus transfers (Tick)
system.mem_ctrl.dram.totMemAccLat         79905565524                       # Total ticks spent from burst creation until serviced by the DRAM (Tick)
system.mem_ctrl.dram.avgQLat                 21608.51                       # Average queueing delay per DRAM burst ((Tick/Count))
system.mem_ctrl.dram.avgBusLat                3332.00                       # Average bus latency per DRAM burst ((Tick/Count))
system.mem_ctrl.dram.avgMemAccLat            39100.51                       # Average memory access latency per DRAM burst ((Tick/Count))
system.mem_ctrl.dram.readRowHits               462923                       # Number of row buffer hits during reads (Count)
system.mem_ctrl.dram.writeRowHits              437072                       # Number of row buffer hits during writes (Count)
system.mem_ctrl.dram.readRowHitRate             22.65                       # Row buffer hit rate for reads (Ratio)
system.mem_ctrl.dram.writeRowHitRate            83.35                       # Row buffer hit rate for writes (Ratio)
system.mem_ctrl.dram.bytesPerActivate::samples      1667927                       # Bytes accessed per row activation (Byte)
system.mem_ctrl.dram.bytesPerActivate::mean    98.533694                       # Bytes accessed per row activation (Byte)
system.mem_ctrl.dram.bytesPerActivate::gmean    72.865459                       # Bytes accessed per row activation (Byte)
system.mem_ctrl.dram.bytesPerActivate::stdev   155.466251                       # Bytes accessed per row activation (Byte)
system.mem_ctrl.dram.bytesPerActivate::0-127      1562115     93.66%     93.66% # Bytes accessed per row activation (Byte)
system.mem_ctrl.dram.bytesPerActivate::128-255        20154      1.21%     94.86% # Bytes accessed per row activation (Byte)
system.mem_ctrl.dram.bytesPerActivate::256-383         6525      0.39%     95.26% # Bytes accessed per row activation (Byte)
system.mem_ctrl.dram.bytesPerActivate::384-511        16560      0.99%     96.25% # Bytes accessed per row activation (Byte)
system.mem_ctrl.dram.bytesPerActivate::512-639         9301      0.56%     96.81% # Bytes accessed per row activation (Byte)
system.mem_ctrl.dram.bytesPerActivate::640-767        12694      0.76%     97.57% # Bytes accessed per row activation (Byte)
system.mem_ctrl.dram.bytesPerActivate::768-895        10133      0.61%     98.17% # Bytes accessed per row activation (Byte)
system.mem_ctrl.dram.bytesPerActivate::896-1023         5404      0.32%     98.50% # Bytes accessed per row activation (Byte)
system.mem_ctrl.dram.bytesPerActivate::1024-1151        25041      1.50%    100.00% # Bytes accessed per row activation (Byte)
system.mem_ctrl.dram.bytesPerActivate::total      1667927                       # Bytes accessed per row activation (Byte)
system.mem_ctrl.dram.bytesRead              130790016                       # Total bytes read (Byte)
system.mem_ctrl.dram.bytesWritten            33559040                       # Total bytes written (Byte)
system.mem_ctrl.dram.avgRdBW               358.337264                       # Average DRAM read bandwidth in MiBytes/s ((Byte/Second))
system.mem_ctrl.dram.avgWrBW                91.944744                       # Average DRAM write bandwidth in MiBytes/s ((Byte/Second))
system.mem_ctrl.dram.peakBW                  19207.00                       # Theoretical peak bandwidth in MiByte/s ((Byte/Second))
system.mem_ctrl.dram.busUtil                     2.34                       # Data bus utilization in percentage (Ratio)
system.mem_ctrl.dram.busUtilRead                 1.87                       # Data bus utilization in percentage for reads (Ratio)
system.mem_ctrl.dram.busUtilWrite                0.48                       # Data bus utilization in percentage for writes (Ratio)
system.mem_ctrl.dram.pageHitRate                35.05                       # Row buffer hit rate, read and write combined (Ratio)
system.mem_ctrl.dram.power_state.pwrStateResidencyTicks::UNDEFINED 364991390000                       # Cumulative time (in ticks) in various power states (Tick)
system.mem_ctrl.dram.rank0.actEnergy     2603705700.960060                       # Energy for activate commands per rank (pJ) (Joule)
system.mem_ctrl.dram.rank0.preEnergy     3461527007.131369                       # Energy for precharge commands per rank (pJ) (Joule)
system.mem_ctrl.dram.rank0.readEnergy    4302881214.776499                       # Energy for read commands per rank (pJ) (Joule)
system.mem_ctrl.dram.rank0.writeEnergy   985342345.343824                       # Energy for write commands per rank (pJ) (Joule)
system.mem_ctrl.dram.rank0.refreshEnergy 64943732407.830009                       # Energy for refresh commands per rank (pJ) (Joule)
system.mem_ctrl.dram.rank0.actBackEnergy 231824218209.993073                       # Energy for active background per rank (pJ) (Joule)
system.mem_ctrl.dram.rank0.preBackEnergy 60141556374.929474                       # Energy for precharge background per rank (pJ) (Joule)
system.mem_ctrl.dram.rank0.actPowerDownEnergy            0                       # Energy for active power-down per rank (pJ) (Joule)
system.mem_ctrl.dram.rank0.prePowerDownEnergy            0                       # Energy for precharge power-down per rank (pJ) (Joule)
system.mem_ctrl.dram.rank0.selfRefreshEnergy            0                       # Energy for self refresh per rank (pJ) (Joule)
system.mem_ctrl.dram.rank0.totalEnergy   368262963261.043701                       # Total energy per rank (pJ) (Joule)
system.mem_ctrl.dram.rank0.averagePower   1008.963426                       # Core power per rank (mW) (Watt)
system.mem_ctrl.dram.rank0.totalIdleTime            0                       # Total Idle time Per DRAM Rank (Tick)
system.mem_ctrl.dram.rank0.pwrStateTime::IDLE  90844807144                       # Time in different power states (Tick)
system.mem_ctrl.dram.rank0.pwrStateTime::REF  16407300000                       # Time in different power states (Tick)
system.mem_ctrl.dram.rank0.pwrStateTime::SREF            0                       # Time in different power states (Tick)
system.mem_ctrl.dram.rank0.pwrStateTime::PRE_PDN            0                       # Time in different power states (Tick)
system.mem_ctrl.dram.rank0.pwrStateTime::ACT 257739282856                       # Time in different power states (Tick)
system.mem_ctrl.dram.rank0.pwrStateTime::ACT_PDN            0                       # Time in different power states (Tick)
system.mem_ctrl.dram.rank1.actEnergy     2598244766.208000                       # Energy for activate commands per rank (pJ) (Joule)
system.mem_ctrl.dram.rank1.preEnergy     3454266764.390564                       # Energy for precharge commands per rank (pJ) (Joule)
system.mem_ctrl.dram.rank1.readEnergy    4293122559.800407                       # Energy for read commands per rank (pJ) (Joule)
system.mem_ctrl.dram.rank1.writeEnergy   985462617.215826                       # Energy for write commands per rank (pJ) (Joule)
system.mem_ctrl.dram.rank1.refreshEnergy 64943732407.830009                       # Energy for refresh commands per rank (pJ) (Joule)
system.mem_ctrl.dram.rank1.actBackEnergy 231736028204.109222                       # Energy for active background per rank (pJ) (Joule)
system.mem_ctrl.dram.rank1.preBackEnergy 60209318187.358047                       # Energy for precharge background per rank (pJ) (Joule)
system.mem_ctrl.dram.rank1.actPowerDownEnergy            0                       # Energy for active power-down per rank (pJ) (Joule)
system.mem_ctrl.dram.rank1.prePowerDownEnergy            0                       # Energy for precharge power-down per rank (pJ) (Joule)
system.mem_ctrl.dram.rank1.selfRefreshEnergy            0                       # Energy for self refresh per rank (pJ) (Joule)
system.mem_ctrl.dram.rank1.totalEnergy   368220175506.990845                       # Total energy per rank (pJ) (Joule)
system.mem_ctrl.dram.rank1.averagePower   1008.846196                       # Core power per rank (mW) (Watt)
system.mem_ctrl.dram.rank1.totalIdleTime            0                       # Total Idle time Per DRAM Rank (Tick)
system.mem_ctrl.dram.rank1.pwrStateTime::IDLE  90948106578                       # Time in different power states (Tick)
system.mem_ctrl.dram.rank1.pwrStateTime::REF  16407300000                       # Time in different power states (Tick)
system.mem_ctrl.dram.rank1.pwrStateTime::SREF            0                       # Time in different power states (Tick)
system.mem_ctrl.dram.rank1.pwrStateTime::PRE_PDN            0                       # Time in different power states (Tick)
system.mem_ctrl.dram.rank1.pwrStateTime::ACT 257635983422                       # Time in different power states (Tick)
system.mem_ctrl.dram.rank1.pwrStateTime::ACT_PDN            0                       # Time in different power states (Tick)
system.mem_ctrl.power_state.pwrStateResidencyTicks::UNDEFINED 364991390000                       # Cumulative time (in ticks) in various power states (Tick)
system.membus.transDist::ReadResp             1519067                       # Transaction distribution (Count)
system.membus.transDist::WritebackDirty        524417                       # Transaction distribution (Count)
system.membus.transDist::CleanEvict           1485943                       # Transaction distribution (Count)
system.membus.transDist::ReadExReq             524527                       # Transaction distribution (Count)
system.membus.transDist::ReadExResp            524527                       # Transaction distribution (Count)
system.membus.transDist::ReadSharedReq        1519067                       # Transaction distribution (Count)
system.membus.pktCount_system.l2cache.mem_side_port::system.mem_ctrl.port      6097548                       # Packet count per connected requestor and responder (Count)
system.membus.pktCount::total                 6097548                       # Packet count per connected requestor and responder (Count)
system.membus.pktSize_system.l2cache.mem_side_port::system.mem_ctrl.port    164352704                       # Cumulative packet size per connected requestor and responder (Byte)
system.membus.pktSize::total                164352704                       # Cumulative packet size per connected requestor and responder (Byte)
system.membus.snoops                                0                       # Total snoops (Count)
system.membus.snoopTraffic                          0                       # Total snoop traffic (Byte)
system.membus.snoopFanout::samples            2043594                       # Request fanout histogram (Count)
system.membus.snoopFanout::mean                     0                       # Request fanout histogram (Count)
system.membus.snoopFanout::stdev                    0                       # Request fanout histogram (Count)
system.membus.snoopFanout::underflows               0      0.00%      0.00% # Request fanout histogram (Count)
system.membus.snoopFanout::0                  2043594    100.00%    100.00% # Request fanout histogram (Count)
system.membus.snoopFanout::1                        0      0.00%    100.00% # Request fanout histogram (Count)
system.membus.snoopFanout::overflows                0      0.00%    100.00% # Request fanout histogram (Count)
system.membus.snoopFanout::min_value                0                       # Request fanout histogram (Count)
system.membus.snoopFanout::max_value                0                       # Request fanout histogram (Count)
system.membus.snoopFanout::total              2043594                       # Request fanout histogram (Count)
system.membus.power_state.pwrStateResidencyTicks::UNDEFINED 364991390000                       # Cumulative time (in ticks) in various power states (Tick)
system.membus.reqLayer0.occupancy          3075811000                       # Layer occupancy (ticks) (Tick)
system.membus.reqLayer0.utilization               0.0                       # Layer utilization (Ratio)
system.membus.respLayer0.occupancy         5544681976                       # Layer occupancy (ticks) (Tick)
system.membus.respLayer0.utilization              0.0                       # Layer utilization (Ratio)
system.membus.snoop_filter.totRequests        4053954                       # Total number of requests made to the snoop filter. (Count)
system.membus.snoop_filter.hitSingleRequests      2010360                       # Number of requests hitting in the snoop filter with a single holder of the requested data. (Count)
system.membus.snoop_filter.hitMultiRequests            0                       # Number of requests hitting in the snoop filter with multiple (>1) holders of the requested data. (Count)
system.membus.snoop_filter.totSnoops                0                       # Total number of snoops made to the snoop filter. (Count)
system.membus.snoop_filter.hitSingleSnoops            0                       # Number of snoops hitting in the snoop filter with a single holder of the requested data. (Count)
system.membus.snoop_filter.hitMultiSnoops            0                       # Number of snoops hitting in the snoop filter with multiple (>1) holders of the requested data. (Count)
system.workload.inst.arm                            0                       # number of arm instructions executed (Count)
system.workload.inst.quiesce                        0                       # number of quiesce instructions executed (Count)

---------- End Simulation Statistics   ----------
