
---------- Begin Simulation Statistics ----------
simSeconds                                   0.235457                       # Number of seconds simulated (Second)
simTicks                                 235456937500                       # Number of ticks simulated (Tick)
finalTick                                235456937500                       # Number of ticks from beginning of simulation (restored from checkpoints and never reset) (Tick)
simFreq                                  1000000000000                       # The number of ticks per simulated second ((Tick/Second))
hostSeconds                                   3857.86                       # Real time elapsed on the host (Second)
hostTickRate                                 61033064                       # The number of ticks simulated per host second (ticks/s) ((Tick/Second))
hostMemory                                    2294808                       # Number of bytes of host memory used (Byte)
simInsts                                   1000000000                       # Number of instructions simulated (Count)
simOps                                     1132163591                       # Number of ops (including micro ops) simulated (Count)
hostInstRate                                   259211                       # Simulator instruction rate (inst/s) ((Count/Second))
hostOpRate                                     293469                       # Simulator op (including micro ops) rate (op/s) ((Count/Second))
system.clk_domain.clock                           500                       # Clock period in ticks (Tick)
system.clk_domain.voltage_domain.voltage            1                       # Voltage in Volts (Volt)
system.cpu.numCycles                        470913876                       # Number of cpu cycles simulated (Cycle)
system.cpu.numWorkItemsStarted                      0                       # Number of work items this cpu started (Count)
system.cpu.numWorkItemsCompleted                    0                       # Number of work items this cpu completed (Count)
system.cpu.instsAdded                      1274294252                       # Number of instructions added to the IQ (excludes non-spec) (Count)
system.cpu.nonSpecInstsAdded                     1980                       # Number of non-speculative instructions added to the IQ (Count)
system.cpu.instsIssued                     1216594848                       # Number of instructions issued (Count)
system.cpu.squashedInstsIssued                   5297                       # Number of squashed instructions issued (Count)
system.cpu.squashedInstsExamined            142132594                       # Number of squashed instructions iterated over during squash; mainly for profiling (Count)
system.cpu.squashedOperandsExamined         371002439                       # Number of squashed operands that are examined and possibly removed from graph (Count)
system.cpu.squashedNonSpecRemoved                 128                       # Number of squashed non-spec instructions that were removed (Count)
system.cpu.numIssuedDist::samples           470837953                       # Number of insts issued each cycle (Count)
system.cpu.numIssuedDist::mean               2.583893                       # Number of insts issued each cycle (Count)
system.cpu.numIssuedDist::stdev              1.993740                       # Number of insts issued each cycle (Count)
system.cpu.numIssuedDist::underflows                0      0.00%      0.00% # Number of insts issued each cycle (Count)
system.cpu.numIssuedDist::0                  74411867     15.80%     15.80% # Number of insts issued each cycle (Count)
system.cpu.numIssuedDist::1                  85602590     18.18%     33.99% # Number of insts issued each cycle (Count)
system.cpu.numIssuedDist::2                  98147580     20.85%     54.83% # Number of insts issued each cycle (Count)
system.cpu.numIssuedDist::3                  75125552     15.96%     70.79% # Number of insts issued each cycle (Count)
system.cpu.numIssuedDist::4                  51789166     11.00%     81.79% # Number of insts issued each cycle (Count)
system.cpu.numIssuedDist::5                  43768755      9.30%     91.08% # Number of insts issued each cycle (Count)
system.cpu.numIssuedDist::6                  19870144      4.22%     95.30% # Number of insts issued each cycle (Count)
system.cpu.numIssuedDist::7                  12879253      2.74%     98.04% # Number of insts issued each cycle (Count)
system.cpu.numIssuedDist::8                   9243046      1.96%    100.00% # Number of insts issued each cycle (Count)
system.cpu.numIssuedDist::overflows                 0      0.00%    100.00% # Number of insts issued each cycle (Count)
system.cpu.numIssuedDist::min_value                 0                       # Number of insts issued each cycle (Count)
system.cpu.numIssuedDist::max_value                 8                       # Number of insts issued each cycle (Count)
system.cpu.numIssuedDist::total             470837953                       # Number of insts issued each cycle (Count)
system.cpu.statFuBusy::No_OpClass                   0      0.00%      0.00% # attempts to use FU when none available (Count)
system.cpu.statFuBusy::IntAlu                 2975604     16.40%     16.40% # attempts to use FU when none available (Count)
system.cpu.statFuBusy::IntMult                      0      0.00%     16.40% # attempts to use FU when none available (Count)
system.cpu.statFuBusy::IntDiv                       0      0.00%     16.40% # attempts to use FU when none available (Count)
system.cpu.statFuBusy::FloatAdd                     0      0.00%     16.40% # attempts to use FU when none available (Count)
system.cpu.statFuBusy::FloatCmp                     0      0.00%     16.40% # attempts to use FU when none available (Count)
system.cpu.statFuBusy::FloatCvt                     0      0.00%     16.40% # attempts to use FU when none available (Count)
system.cpu.statFuBusy::FloatMult                    0      0.00%     16.40% # attempts to use FU when none available (Count)
system.cpu.statFuBusy::FloatMultAcc                 0      0.00%     16.40% # attempts to use FU when none available (Count)
system.cpu.statFuBusy::FloatDiv                     0      0.00%     16.40% # attempts to use FU when none available (Count)
system.cpu.statFuBusy::FloatMisc                    0      0.00%     16.40% # attempts to use FU when none available (Count)
system.cpu.statFuBusy::FloatSqrt                    0      0.00%     16.40% # attempts to use FU when none available (Count)
system.cpu.statFuBusy::SimdAdd                      0      0.00%     16.40% # attempts to use FU when none available (Count)
system.cpu.statFuBusy::SimdAddAcc                   0      0.00%     16.40% # attempts to use FU when none available (Count)
system.cpu.statFuBusy::SimdAlu                      0      0.00%     16.40% # attempts to use FU when none available (Count)
system.cpu.statFuBusy::SimdCmp                      0      0.00%     16.40% # attempts to use FU when none available (Count)
system.cpu.statFuBusy::SimdCvt                      0      0.00%     16.40% # attempts to use FU when none available (Count)
system.cpu.statFuBusy::SimdMisc                     0      0.00%     16.40% # attempts to use FU when none available (Count)
system.cpu.statFuBusy::SimdMult                     0      0.00%     16.40% # attempts to use FU when none available (Count)
system.cpu.statFuBusy::SimdMultAcc                  0      0.00%     16.40% # attempts to use FU when none available (Count)
system.cpu.statFuBusy::SimdShift                    0      0.00%     16.40% # attempts to use FU when none available (Count)
system.cpu.statFuBusy::SimdShiftAcc                 0      0.00%     16.40% # attempts to use FU when none available (Count)
system.cpu.statFuBusy::SimdDiv                      0      0.00%     16.40% # attempts to use FU when none available (Count)
system.cpu.statFuBusy::SimdSqrt                     0      0.00%     16.40% # attempts to use FU when none available (Count)
system.cpu.statFuBusy::SimdFloatAdd                 0      0.00%     16.40% # attempts to use FU when none available (Count)
system.cpu.statFuBusy::SimdFloatAlu                 0      0.00%     16.40% # attempts to use FU when none available (Count)
system.cpu.statFuBusy::SimdFloatCmp                 0      0.00%     16.40% # attempts to use FU when none available (Count)
system.cpu.statFuBusy::SimdFloatCvt                 0      0.00%     16.40% # attempts to use FU when none available (Count)
system.cpu.statFuBusy::SimdFloatDiv                 0      0.00%     16.40% # attempts to use FU when none available (Count)
system.cpu.statFuBusy::SimdFloatMisc                0      0.00%     16.40% # attempts to use FU when none available (Count)
system.cpu.statFuBusy::SimdFloatMult                0      0.00%     16.40% # attempts to use FU when none available (Count)
system.cpu.statFuBusy::SimdFloatMultAcc             0      0.00%     16.40% # attempts to use FU when none available (Count)
system.cpu.statFuBusy::SimdFloatSqrt                0      0.00%     16.40% # attempts to use FU when none available (Count)
system.cpu.statFuBusy::SimdReduceAdd                0      0.00%     16.40% # attempts to use FU when none available (Count)
system.cpu.statFuBusy::SimdReduceAlu                0      0.00%     16.40% # attempts to use FU when none available (Count)
system.cpu.statFuBusy::SimdReduceCmp                0      0.00%     16.40% # attempts to use FU when none available (Count)
system.cpu.statFuBusy::SimdFloatReduceAdd            0      0.00%     16.40% # attempts to use FU when none available (Count)
system.cpu.statFuBusy::SimdFloatReduceCmp            0      0.00%     16.40% # attempts to use FU when none available (Count)
system.cpu.statFuBusy::SimdAes                      0      0.00%     16.40% # attempts to use FU when none available (Count)
system.cpu.statFuBusy::SimdAesMix                   0      0.00%     16.40% # attempts to use FU when none available (Count)
system.cpu.statFuBusy::SimdSha1Hash                 0      0.00%     16.40% # attempts to use FU when none available (Count)
system.cpu.statFuBusy::SimdSha1Hash2                0      0.00%     16.40% # attempts to use FU when none available (Count)
system.cpu.statFuBusy::SimdSha256Hash               0      0.00%     16.40% # attempts to use FU when none available (Count)
system.cpu.statFuBusy::SimdSha256Hash2              0      0.00%     16.40% # attempts to use FU when none available (Count)
system.cpu.statFuBusy::SimdShaSigma2                0      0.00%     16.40% # attempts to use FU when none available (Count)
system.cpu.statFuBusy::SimdShaSigma3                0      0.00%     16.40% # attempts to use FU when none available (Count)
system.cpu.statFuBusy::SimdPredAlu                  0      0.00%     16.40% # attempts to use FU when none available (Count)
system.cpu.statFuBusy::MemRead                9666010     53.27%     69.67% # attempts to use FU when none available (Count)
system.cpu.statFuBusy::MemWrite               5503939     30.33%    100.00% # attempts to use FU when none available (Count)
system.cpu.statFuBusy::FloatMemRead                 0      0.00%    100.00% # attempts to use FU when none available (Count)
system.cpu.statFuBusy::FloatMemWrite                0      0.00%    100.00% # attempts to use FU when none available (Count)
system.cpu.statFuBusy::IprAccess                    0      0.00%    100.00% # attempts to use FU when none available (Count)
system.cpu.statFuBusy::InstPrefetch                 0      0.00%    100.00% # attempts to use FU when none available (Count)
system.cpu.statIssuedInstType_0::No_OpClass            3      0.00%      0.00% # Number of instructions issued per FU type, per thread (Count)
system.cpu.statIssuedInstType_0::IntAlu     769083242     63.22%     63.22% # Number of instructions issued per FU type, per thread (Count)
system.cpu.statIssuedInstType_0::IntMult      7133704      0.59%     63.80% # Number of instructions issued per FU type, per thread (Count)
system.cpu.statIssuedInstType_0::IntDiv             0      0.00%     63.80% # Number of instructions issued per FU type, per thread (Count)
system.cpu.statIssuedInstType_0::FloatAdd            0      0.00%     63.80% # Number of instructions issued per FU type, per thread (Count)
system.cpu.statIssuedInstType_0::FloatCmp            0      0.00%     63.80% # Number of instructions issued per FU type, per thread (Count)
system.cpu.statIssuedInstType_0::FloatCvt            0      0.00%     63.80% # Number of instructions issued per FU type, per thread (Count)
system.cpu.statIssuedInstType_0::FloatMult            0      0.00%     63.80% # Number of instructions issued per FU type, per thread (Count)
system.cpu.statIssuedInstType_0::FloatMultAcc            0      0.00%     63.80% # Number of instructions issued per FU type, per thread (Count)
system.cpu.statIssuedInstType_0::FloatDiv            0      0.00%     63.80% # Number of instructions issued per FU type, per thread (Count)
system.cpu.statIssuedInstType_0::FloatMisc            0      0.00%     63.80% # Number of instructions issued per FU type, per thread (Count)
system.cpu.statIssuedInstType_0::FloatSqrt            0      0.00%     63.80% # Number of instructions issued per FU type, per thread (Count)
system.cpu.statIssuedInstType_0::SimdAdd            0      0.00%     63.80% # Number of instructions issued per FU type, per thread (Count)
system.cpu.statIssuedInstType_0::SimdAddAcc            0      0.00%     63.80% # Number of instructions issued per FU type, per thread (Count)
system.cpu.statIssuedInstType_0::SimdAlu            0      0.00%     63.80% # Number of instructions issued per FU type, per thread (Count)
system.cpu.statIssuedInstType_0::SimdCmp            0      0.00%     63.80% # Number of instructions issued per FU type, per thread (Count)
system.cpu.statIssuedInstType_0::SimdCvt            0      0.00%     63.80% # Number of instructions issued per FU type, per thread (Count)
system.cpu.statIssuedInstType_0::SimdMisc            0      0.00%     63.80% # Number of instructions issued per FU type, per thread (Count)
system.cpu.statIssuedInstType_0::SimdMult            0      0.00%     63.80% # Number of instructions issued per FU type, per thread (Count)
system.cpu.statIssuedInstType_0::SimdMultAcc            0      0.00%     63.80% # Number of instructions issued per FU type, per thread (Count)
system.cpu.statIssuedInstType_0::SimdShift            0      0.00%     63.80% # Number of instructions issued per FU type, per thread (Count)
system.cpu.statIssuedInstType_0::SimdShiftAcc            0      0.00%     63.80% # Number of instructions issued per FU type, per thread (Count)
system.cpu.statIssuedInstType_0::SimdDiv            0      0.00%     63.80% # Number of instructions issued per FU type, per thread (Count)
system.cpu.statIssuedInstType_0::SimdSqrt            0      0.00%     63.80% # Number of instructions issued per FU type, per thread (Count)
system.cpu.statIssuedInstType_0::SimdFloatAdd            0      0.00%     63.80% # Number of instructions issued per FU type, per thread (Count)
system.cpu.statIssuedInstType_0::SimdFloatAlu            0      0.00%     63.80% # Number of instructions issued per FU type, per thread (Count)
system.cpu.statIssuedInstType_0::SimdFloatCmp            0      0.00%     63.80% # Number of instructions issued per FU type, per thread (Count)
system.cpu.statIssuedInstType_0::SimdFloatCvt            0      0.00%     63.80% # Number of instructions issued per FU type, per thread (Count)
system.cpu.statIssuedInstType_0::SimdFloatDiv            0      0.00%     63.80% # Number of instructions issued per FU type, per thread (Count)
system.cpu.statIssuedInstType_0::SimdFloatMisc            0      0.00%     63.80% # Number of instructions issued per FU type, per thread (Count)
system.cpu.statIssuedInstType_0::SimdFloatMult            0      0.00%     63.80% # Number of instructions issued per FU type, per thread (Count)
system.cpu.statIssuedInstType_0::SimdFloatMultAcc            0      0.00%     63.80% # Number of instructions issued per FU type, per thread (Count)
system.cpu.statIssuedInstType_0::SimdFloatSqrt            0      0.00%     63.80% # Number of instructions issued per FU type, per thread (Count)
system.cpu.statIssuedInstType_0::SimdReduceAdd            0      0.00%     63.80% # Number of instructions issued per FU type, per thread (Count)
system.cpu.statIssuedInstType_0::SimdReduceAlu            0      0.00%     63.80% # Number of instructions issued per FU type, per thread (Count)
system.cpu.statIssuedInstType_0::SimdReduceCmp            0      0.00%     63.80% # Number of instructions issued per FU type, per thread (Count)
system.cpu.statIssuedInstType_0::SimdFloatReduceAdd            0      0.00%     63.80% # Number of instructions issued per FU type, per thread (Count)
system.cpu.statIssuedInstType_0::SimdFloatReduceCmp            0      0.00%     63.80% # Number of instructions issued per FU type, per thread (Count)
system.cpu.statIssuedInstType_0::SimdAes            0      0.00%     63.80% # Number of instructions issued per FU type, per thread (Count)
system.cpu.statIssuedInstType_0::SimdAesMix            0      0.00%     63.80% # Number of instructions issued per FU type, per thread (Count)
system.cpu.statIssuedInstType_0::SimdSha1Hash            0      0.00%     63.80% # Number of instructions issued per FU type, per thread (Count)
system.cpu.statIssuedInstType_0::SimdSha1Hash2            0      0.00%     63.80% # Number of instructions issued per FU type, per thread (Count)
system.cpu.statIssuedInstType_0::SimdSha256Hash            0      0.00%     63.80% # Number of instructions issued per FU type, per thread (Count)
system.cpu.statIssuedInstType_0::SimdSha256Hash2            0      0.00%     63.80% # Number of instructions issued per FU type, per thread (Count)
system.cpu.statIssuedInstType_0::SimdShaSigma2            0      0.00%     63.80% # Number of instructions issued per FU type, per thread (Count)
system.cpu.statIssuedInstType_0::SimdShaSigma3            0      0.00%     63.80% # Number of instructions issued per FU type, per thread (Count)
system.cpu.statIssuedInstType_0::SimdPredAlu            0      0.00%     63.80% # Number of instructions issued per FU type, per thread (Count)
system.cpu.statIssuedInstType_0::MemRead    285903684     23.50%     87.30% # Number of instructions issued per FU type, per thread (Count)
system.cpu.statIssuedInstType_0::MemWrite    154474215     12.70%    100.00% # Number of instructions issued per FU type, per thread (Count)
system.cpu.statIssuedInstType_0::FloatMemRead            0      0.00%    100.00% # Number of instructions issued per FU type, per thread (Count)
system.cpu.statIssuedInstType_0::FloatMemWrite            0      0.00%    100.00% # Number of instructions issued per FU type, per thread (Count)
system.cpu.statIssuedInstType_0::IprAccess            0      0.00%    100.00% # Number of instructions issued per FU type, per thread (Count)
system.cpu.statIssuedInstType_0::InstPrefetch            0      0.00%    100.00% # Number of instructions issued per FU type, per thread (Count)
system.cpu.statIssuedInstType_0::total     1216594848                       # Number of instructions issued per FU type, per thread (Count)
system.cpu.issueRate                         2.583476                       # Inst issue rate ((Count/Cycle))
system.cpu.fuBusy                            18145553                       # FU busy when requested (Count)
system.cpu.fuBusyRate                        0.014915                       # FU busy rate (busy events/executed inst) ((Count/Count))
system.cpu.intInstQueueReads               2922178499                       # Number of integer instruction queue reads (Count)
system.cpu.intInstQueueWrites              1416445518                       # Number of integer instruction queue writes (Count)
system.cpu.intInstQueueWakeupAccesses      1184710547                       # Number of integer instruction queue wakeup accesses (Count)
system.cpu.fpInstQueueReads                         0                       # Number of floating instruction queue reads (Count)
system.cpu.fpInstQueueWrites                        0                       # Number of floating instruction queue writes (Count)
system.cpu.fpInstQueueWakeupAccesses                0                       # Number of floating instruction queue wakeup accesses (Count)
system.cpu.vecInstQueueReads                        0                       # Number of vector instruction queue reads (Count)
system.cpu.vecInstQueueWrites                       0                       # Number of vector instruction queue writes (Count)
system.cpu.vecInstQueueWakeupAccesses               0                       # Number of vector instruction queue wakeup accesses (Count)
system.cpu.intAluAccesses                  1234740398                       # Number of integer alu accesses (Count)
system.cpu.fpAluAccesses                            0                       # Number of floating point alu accesses (Count)
system.cpu.vecAluAccesses                           0                       # Number of vector alu accesses (Count)
system.cpu.numInsts                        1205612932                       # Number of executed instructions (Count)
system.cpu.numLoadInsts                     280783466                       # Number of load instructions executed (Count)
system.cpu.numSquashedInsts                  10981916                       # Number of squashed instructions skipped in execute (Count)
system.cpu.numSwp                                   0                       # Number of swp insts executed (Count)
system.cpu.numNop                                   0                       # Number of nop insts executed (Count)
system.cpu.numRefs                          433581698                       # Number of memory reference insts executed (Count)
system.cpu.numBranches                      195160843                       # Number of branches executed (Count)
system.cpu.numStoreInsts                    152798232                       # Number of stores executed (Count)
system.cpu.numRate                           2.560156                       # Inst execution rate ((Count/Cycle))
system.cpu.timesIdled                             876                       # Number of times that the entire CPU went into an idle state and unscheduled itself (Count)
system.cpu.idleCycles                           75923                       # Total number of cycles that the CPU has spent unscheduled due to idling (Cycle)
system.cpu.committedInsts                  1000000000                       # Number of Instructions Simulated (Count)
system.cpu.committedOps                    1132163591                       # Number of Ops (including micro ops) Simulated (Count)
system.cpu.cpi                               0.470914                       # CPI: Cycles Per Instruction ((Cycle/Count))
system.cpu.totalCpi                          0.470914                       # CPI: Total CPI of All Threads ((Cycle/Count))
system.cpu.ipc                               2.123531                       # IPC: Instructions Per Cycle ((Count/Cycle))
system.cpu.totalIpc                          2.123531                       # IPC: Total IPC of All Threads ((Count/Cycle))
system.cpu.intRegfileReads                 1375969220                       # Number of integer regfile reads (Count)
system.cpu.intRegfileWrites                 701480585                       # Number of integer regfile writes (Count)
system.cpu.vecRegfileReads                         16                       # number of vector regfile reads (Count)
system.cpu.ccRegfileReads                  4389037556                       # number of cc regfile reads (Count)
system.cpu.ccRegfileWrites                  613791377                       # number of cc regfile writes (Count)
system.cpu.miscRegfileReads                 410200608                       # number of misc regfile reads (Count)
system.cpu.miscRegfileWrites                     1709                       # number of misc regfile writes (Count)
system.cpu.MemDepUnit__0.insertedLoads      281669342                       # Number of loads inserted to the mem dependence unit. (Count)
system.cpu.MemDepUnit__0.insertedStores     159095765                       # Number of stores inserted to the mem dependence unit. (Count)
system.cpu.MemDepUnit__0.conflictingLoads     44267372                       # Number of conflicting loads. (Count)
system.cpu.MemDepUnit__0.conflictingStores     17231737                       # Number of conflicting stores. (Count)
system.cpu.MemDepUnit__1.insertedLoads              0                       # Number of loads inserted to the mem dependence unit. (Count)
system.cpu.MemDepUnit__1.insertedStores             0                       # Number of stores inserted to the mem dependence unit. (Count)
system.cpu.MemDepUnit__1.conflictingLoads            0                       # Number of conflicting loads. (Count)
system.cpu.MemDepUnit__1.conflictingStores            0                       # Number of conflicting stores. (Count)
system.cpu.MemDepUnit__2.insertedLoads              0                       # Number of loads inserted to the mem dependence unit. (Count)
system.cpu.MemDepUnit__2.insertedStores             0                       # Number of stores inserted to the mem dependence unit. (Count)
system.cpu.MemDepUnit__2.conflictingLoads            0                       # Number of conflicting loads. (Count)
system.cpu.MemDepUnit__2.conflictingStores            0                       # Number of conflicting stores. (Count)
system.cpu.MemDepUnit__3.insertedLoads              0                       # Number of loads inserted to the mem dependence unit. (Count)
system.cpu.MemDepUnit__3.insertedStores             0                       # Number of stores inserted to the mem dependence unit. (Count)
system.cpu.MemDepUnit__3.conflictingLoads            0                       # Number of conflicting loads. (Count)
system.cpu.MemDepUnit__3.conflictingStores            0                       # Number of conflicting stores. (Count)
system.cpu.branchPred.lookups               235335792                       # Number of BP lookups (Count)
system.cpu.branchPred.condPredicted         178475303                       # Number of conditional branches predicted (Count)
system.cpu.branchPred.condIncorrect           6268446                       # Number of conditional branches incorrect (Count)
system.cpu.branchPred.BTBLookups             67916126                       # Number of BTB lookups (Count)
system.cpu.branchPred.BTBHits                62484562                       # Number of BTB hits (Count)
system.cpu.branchPred.BTBHitRatio            0.920025                       # BTB Hit Ratio (Ratio)
system.cpu.branchPred.RASUsed                22142403                       # Number of times the RAS was used to get a target. (Count)
system.cpu.branchPred.RASIncorrect               1067                       # Number of incorrect RAS predictions. (Count)
system.cpu.branchPred.indirectLookups         2511809                       # Number of indirect predictor lookups. (Count)
system.cpu.branchPred.indirectHits            2509967                       # Number of indirect target hits. (Count)
system.cpu.branchPred.indirectMisses             1842                       # Number of indirect misses. (Count)
system.cpu.branchPred.indirectMispredicted          342                       # Number of mispredicted indirect branches. (Count)
system.cpu.commit.commitSquashedInsts       142029130                       # The number of squashed insts skipped by commit (Count)
system.cpu.commit.commitNonSpecStalls            1852                       # The number of times commit has been forced to stall to communicate backwards (Count)
system.cpu.commit.branchMispredicts           3762773                       # The number of times a branch was mispredicted (Count)
system.cpu.commit.numCommittedDist::samples    451547992                       # Number of insts commited each cycle (Count)
system.cpu.commit.numCommittedDist::mean     2.507294                       # Number of insts commited each cycle (Count)
system.cpu.commit.numCommittedDist::stdev     2.831205                       # Number of insts commited each cycle (Count)
system.cpu.commit.numCommittedDist::underflows            0      0.00%      0.00% # Number of insts commited each cycle (Count)
system.cpu.commit.numCommittedDist::0       121893114     26.99%     26.99% # Number of insts commited each cycle (Count)
system.cpu.commit.numCommittedDist::1       123512288     27.35%     54.35% # Number of insts commited each cycle (Count)
system.cpu.commit.numCommittedDist::2        71399610     15.81%     70.16% # Number of insts commited each cycle (Count)
system.cpu.commit.numCommittedDist::3        13786253      3.05%     73.21% # Number of insts commited each cycle (Count)
system.cpu.commit.numCommittedDist::4        19248631      4.26%     77.48% # Number of insts commited each cycle (Count)
system.cpu.commit.numCommittedDist::5        14698494      3.26%     80.73% # Number of insts commited each cycle (Count)
system.cpu.commit.numCommittedDist::6         5983206      1.33%     82.06% # Number of insts commited each cycle (Count)
system.cpu.commit.numCommittedDist::7        10104074      2.24%     84.29% # Number of insts commited each cycle (Count)
system.cpu.commit.numCommittedDist::8        70922322     15.71%    100.00% # Number of insts commited each cycle (Count)
system.cpu.commit.numCommittedDist::overflows            0      0.00%    100.00% # Number of insts commited each cycle (Count)
system.cpu.commit.numCommittedDist::min_value            0                       # Number of insts commited each cycle (Count)
system.cpu.commit.numCommittedDist::max_value            8                       # Number of insts commited each cycle (Count)
system.cpu.commit.numCommittedDist::total    451547992                       # Number of insts commited each cycle (Count)
system.cpu.commit.instsCommitted           1000000000                       # Number of instructions committed (Count)
system.cpu.commit.opsCommitted             1132163591                       # Number of ops (including micro ops) committed (Count)
system.cpu.commit.memRefs                   397529001                       # Number of memory references committed (Count)
system.cpu.commit.loads                     248983110                       # Number of loads committed (Count)
system.cpu.commit.amos                              0                       # Number of atomic instructions committed (Count)
system.cpu.commit.membars                         431                       # Number of memory barriers committed (Count)
system.cpu.commit.branches                  188421440                       # Number of branches committed (Count)
system.cpu.commit.vectorInstructions                0                       # Number of committed Vector instructions. (Count)
system.cpu.commit.floating                          0                       # Number of committed floating point instructions. (Count)
system.cpu.commit.integer                   982994693                       # Number of committed integer instructions. (Count)
system.cpu.commit.functionCalls              18373461                       # Number of function calls committed. (Count)
system.cpu.commit.committedInstType_0::No_OpClass            0      0.00%      0.00% # Class of committed instruction (Count)
system.cpu.commit.committedInstType_0::IntAlu    728754673     64.37%     64.37% # Class of committed instruction (Count)
system.cpu.commit.committedInstType_0::IntMult      5879917      0.52%     64.89% # Class of committed instruction (Count)
system.cpu.commit.committedInstType_0::IntDiv            0      0.00%     64.89% # Class of committed instruction (Count)
system.cpu.commit.committedInstType_0::FloatAdd            0      0.00%     64.89% # Class of committed instruction (Count)
system.cpu.commit.committedInstType_0::FloatCmp            0      0.00%     64.89% # Class of committed instruction (Count)
system.cpu.commit.committedInstType_0::FloatCvt            0      0.00%     64.89% # Class of committed instruction (Count)
system.cpu.commit.committedInstType_0::FloatMult            0      0.00%     64.89% # Class of committed instruction (Count)
system.cpu.commit.committedInstType_0::FloatMultAcc            0      0.00%     64.89% # Class of committed instruction (Count)
system.cpu.commit.committedInstType_0::FloatDiv            0      0.00%     64.89% # Class of committed instruction (Count)
system.cpu.commit.committedInstType_0::FloatMisc            0      0.00%     64.89% # Class of committed instruction (Count)
system.cpu.commit.committedInstType_0::FloatSqrt            0      0.00%     64.89% # Class of committed instruction (Count)
system.cpu.commit.committedInstType_0::SimdAdd            0      0.00%     64.89% # Class of committed instruction (Count)
system.cpu.commit.committedInstType_0::SimdAddAcc            0      0.00%     64.89% # Class of committed instruction (Count)
system.cpu.commit.committedInstType_0::SimdAlu            0      0.00%     64.89% # Class of committed instruction (Count)
system.cpu.commit.committedInstType_0::SimdCmp            0      0.00%     64.89% # Class of committed instruction (Count)
system.cpu.commit.committedInstType_0::SimdCvt            0      0.00%     64.89% # Class of committed instruction (Count)
system.cpu.commit.committedInstType_0::SimdMisc            0      0.00%     64.89% # Class of committed instruction (Count)
system.cpu.commit.committedInstType_0::SimdMult            0      0.00%     64.89% # Class of committed instruction (Count)
system.cpu.commit.committedInstType_0::SimdMultAcc            0      0.00%     64.89% # Class of committed instruction (Count)
system.cpu.commit.committedInstType_0::SimdShift            0      0.00%     64.89% # Class of committed instruction (Count)
system.cpu.commit.committedInstType_0::SimdShiftAcc            0      0.00%     64.89% # Class of committed instruction (Count)
system.cpu.commit.committedInstType_0::SimdDiv            0      0.00%     64.89% # Class of committed instruction (Count)
system.cpu.commit.committedInstType_0::SimdSqrt            0      0.00%     64.89% # Class of committed instruction (Count)
system.cpu.commit.committedInstType_0::SimdFloatAdd            0      0.00%     64.89% # Class of committed instruction (Count)
system.cpu.commit.committedInstType_0::SimdFloatAlu            0      0.00%     64.89% # Class of committed instruction (Count)
system.cpu.commit.committedInstType_0::SimdFloatCmp            0      0.00%     64.89% # Class of committed instruction (Count)
system.cpu.commit.committedInstType_0::SimdFloatCvt            0      0.00%     64.89% # Class of committed instruction (Count)
system.cpu.commit.committedInstType_0::SimdFloatDiv            0      0.00%     64.89% # Class of committed instruction (Count)
system.cpu.commit.committedInstType_0::SimdFloatMisc            0      0.00%     64.89% # Class of committed instruction (Count)
system.cpu.commit.committedInstType_0::SimdFloatMult            0      0.00%     64.89% # Class of committed instruction (Count)
system.cpu.commit.committedInstType_0::SimdFloatMultAcc            0      0.00%     64.89% # Class of committed instruction (Count)
system.cpu.commit.committedInstType_0::SimdFloatSqrt            0      0.00%     64.89% # Class of committed instruction (Count)
system.cpu.commit.committedInstType_0::SimdReduceAdd            0      0.00%     64.89% # Class of committed instruction (Count)
system.cpu.commit.committedInstType_0::SimdReduceAlu            0      0.00%     64.89% # Class of committed instruction (Count)
system.cpu.commit.committedInstType_0::SimdReduceCmp            0      0.00%     64.89% # Class of committed instruction (Count)
system.cpu.commit.committedInstType_0::SimdFloatReduceAdd            0      0.00%     64.89% # Class of committed instruction (Count)
system.cpu.commit.committedInstType_0::SimdFloatReduceCmp            0      0.00%     64.89% # Class of committed instruction (Count)
system.cpu.commit.committedInstType_0::SimdAes            0      0.00%     64.89% # Class of committed instruction (Count)
system.cpu.commit.committedInstType_0::SimdAesMix            0      0.00%     64.89% # Class of committed instruction (Count)
system.cpu.commit.committedInstType_0::SimdSha1Hash            0      0.00%     64.89% # Class of committed instruction (Count)
system.cpu.commit.committedInstType_0::SimdSha1Hash2            0      0.00%     64.89% # Class of committed instruction (Count)
system.cpu.commit.committedInstType_0::SimdSha256Hash            0      0.00%     64.89% # Class of committed instruction (Count)
system.cpu.commit.committedInstType_0::SimdSha256Hash2            0      0.00%     64.89% # Class of committed instruction (Count)
system.cpu.commit.committedInstType_0::SimdShaSigma2            0      0.00%     64.89% # Class of committed instruction (Count)
system.cpu.commit.committedInstType_0::SimdShaSigma3            0      0.00%     64.89% # Class of committed instruction (Count)
system.cpu.commit.committedInstType_0::SimdPredAlu            0      0.00%     64.89% # Class of committed instruction (Count)
system.cpu.commit.committedInstType_0::MemRead    248983110     21.99%     86.88% # Class of committed instruction (Count)
system.cpu.commit.committedInstType_0::MemWrite    148545891     13.12%    100.00% # Class of committed instruction (Count)
system.cpu.commit.committedInstType_0::FloatMemRead            0      0.00%    100.00% # Class of committed instruction (Count)
system.cpu.commit.committedInstType_0::FloatMemWrite            0      0.00%    100.00% # Class of committed instruction (Count)
system.cpu.commit.committedInstType_0::IprAccess            0      0.00%    100.00% # Class of committed instruction (Count)
system.cpu.commit.committedInstType_0::InstPrefetch            0      0.00%    100.00% # Class of committed instruction (Count)
system.cpu.commit.committedInstType_0::total   1132163591                       # Class of committed instruction (Count)
system.cpu.commit.commitEligibleSamples      70922322                       # number cycles where commit BW limit reached (Cycle)
system.cpu.dcache.demandHits::cpu.data      367992877                       # number of demand (read+write) hits (Count)
system.cpu.dcache.demandHits::total         367992877                       # number of demand (read+write) hits (Count)
system.cpu.dcache.overallHits::cpu.data     367992877                       # number of overall hits (Count)
system.cpu.dcache.overallHits::total        367992877                       # number of overall hits (Count)
system.cpu.dcache.demandMisses::cpu.data      1422453                       # number of demand (read+write) misses (Count)
system.cpu.dcache.demandMisses::total         1422453                       # number of demand (read+write) misses (Count)
system.cpu.dcache.overallMisses::cpu.data      1422453                       # number of overall misses (Count)
system.cpu.dcache.overallMisses::total        1422453                       # number of overall misses (Count)
system.cpu.dcache.demandMissLatency::cpu.data 112685089481                       # number of demand (read+write) miss ticks (Tick)
system.cpu.dcache.demandMissLatency::total 112685089481                       # number of demand (read+write) miss ticks (Tick)
system.cpu.dcache.overallMissLatency::cpu.data 112685089481                       # number of overall miss ticks (Tick)
system.cpu.dcache.overallMissLatency::total 112685089481                       # number of overall miss ticks (Tick)
system.cpu.dcache.demandAccesses::cpu.data    369415330                       # number of demand (read+write) accesses (Count)
system.cpu.dcache.demandAccesses::total     369415330                       # number of demand (read+write) accesses (Count)
system.cpu.dcache.overallAccesses::cpu.data    369415330                       # number of overall (read+write) accesses (Count)
system.cpu.dcache.overallAccesses::total    369415330                       # number of overall (read+write) accesses (Count)
system.cpu.dcache.demandMissRate::cpu.data     0.003851                       # miss rate for demand accesses (Ratio)
system.cpu.dcache.demandMissRate::total      0.003851                       # miss rate for demand accesses (Ratio)
system.cpu.dcache.overallMissRate::cpu.data     0.003851                       # miss rate for overall accesses (Ratio)
system.cpu.dcache.overallMissRate::total     0.003851                       # miss rate for overall accesses (Ratio)
system.cpu.dcache.demandAvgMissLatency::cpu.data 79218.849045                       # average overall miss latency in ticks ((Tick/Count))
system.cpu.dcache.demandAvgMissLatency::total 79218.849045                       # average overall miss latency in ticks ((Tick/Count))
system.cpu.dcache.overallAvgMissLatency::cpu.data 79218.849045                       # average overall miss latency ((Tick/Count))
system.cpu.dcache.overallAvgMissLatency::total 79218.849045                       # average overall miss latency ((Tick/Count))
system.cpu.dcache.blockedCycles::no_mshrs         2583                       # number of cycles access was blocked (Cycle)
system.cpu.dcache.blockedCycles::no_targets          197                       # number of cycles access was blocked (Cycle)
system.cpu.dcache.blockedCauses::no_mshrs          100                       # number of times access was blocked (Count)
system.cpu.dcache.blockedCauses::no_targets            4                       # number of times access was blocked (Count)
system.cpu.dcache.avgBlocked::no_mshrs      25.830000                       # average number of cycles each access was blocked ((Cycle/Count))
system.cpu.dcache.avgBlocked::no_targets    49.250000                       # average number of cycles each access was blocked ((Cycle/Count))
system.cpu.dcache.writebacks::writebacks       150024                       # number of writebacks (Count)
system.cpu.dcache.writebacks::total            150024                       # number of writebacks (Count)
system.cpu.dcache.demandMshrHits::cpu.data      1237375                       # number of demand (read+write) MSHR hits (Count)
system.cpu.dcache.demandMshrHits::total       1237375                       # number of demand (read+write) MSHR hits (Count)
system.cpu.dcache.overallMshrHits::cpu.data      1237375                       # number of overall MSHR hits (Count)
system.cpu.dcache.overallMshrHits::total      1237375                       # number of overall MSHR hits (Count)
system.cpu.dcache.demandMshrMisses::cpu.data       185078                       # number of demand (read+write) MSHR misses (Count)
system.cpu.dcache.demandMshrMisses::total       185078                       # number of demand (read+write) MSHR misses (Count)
system.cpu.dcache.overallMshrMisses::cpu.data       185078                       # number of overall MSHR misses (Count)
system.cpu.dcache.overallMshrMisses::total       185078                       # number of overall MSHR misses (Count)
system.cpu.dcache.demandMshrMissLatency::cpu.data  13972751495                       # number of demand (read+write) MSHR miss ticks (Tick)
system.cpu.dcache.demandMshrMissLatency::total  13972751495                       # number of demand (read+write) MSHR miss ticks (Tick)
system.cpu.dcache.overallMshrMissLatency::cpu.data  13972751495                       # number of overall MSHR miss ticks (Tick)
system.cpu.dcache.overallMshrMissLatency::total  13972751495                       # number of overall MSHR miss ticks (Tick)
system.cpu.dcache.demandMshrMissRate::cpu.data     0.000501                       # mshr miss ratio for demand accesses (Ratio)
system.cpu.dcache.demandMshrMissRate::total     0.000501                       # mshr miss ratio for demand accesses (Ratio)
system.cpu.dcache.overallMshrMissRate::cpu.data     0.000501                       # mshr miss ratio for overall accesses (Ratio)
system.cpu.dcache.overallMshrMissRate::total     0.000501                       # mshr miss ratio for overall accesses (Ratio)
system.cpu.dcache.demandAvgMshrMissLatency::cpu.data 75496.555479                       # average overall mshr miss latency ((Tick/Count))
system.cpu.dcache.demandAvgMshrMissLatency::total 75496.555479                       # average overall mshr miss latency ((Tick/Count))
system.cpu.dcache.overallAvgMshrMissLatency::cpu.data 75496.555479                       # average overall mshr miss latency ((Tick/Count))
system.cpu.dcache.overallAvgMshrMissLatency::total 75496.555479                       # average overall mshr miss latency ((Tick/Count))
system.cpu.dcache.replacements                 184564                       # number of replacements (Count)
system.cpu.dcache.LoadLockedReq.hits::cpu.data          438                       # number of LoadLockedReq hits (Count)
system.cpu.dcache.LoadLockedReq.hits::total          438                       # number of LoadLockedReq hits (Count)
system.cpu.dcache.LoadLockedReq.misses::cpu.data           17                       # number of LoadLockedReq misses (Count)
system.cpu.dcache.LoadLockedReq.misses::total           17                       # number of LoadLockedReq misses (Count)
system.cpu.dcache.LoadLockedReq.missLatency::cpu.data       659000                       # number of LoadLockedReq miss ticks (Tick)
system.cpu.dcache.LoadLockedReq.missLatency::total       659000                       # number of LoadLockedReq miss ticks (Tick)
system.cpu.dcache.LoadLockedReq.accesses::cpu.data          455                       # number of LoadLockedReq accesses(hits+misses) (Count)
system.cpu.dcache.LoadLockedReq.accesses::total          455                       # number of LoadLockedReq accesses(hits+misses) (Count)
system.cpu.dcache.LoadLockedReq.missRate::cpu.data     0.037363                       # miss rate for LoadLockedReq accesses (Ratio)
system.cpu.dcache.LoadLockedReq.missRate::total     0.037363                       # miss rate for LoadLockedReq accesses (Ratio)
system.cpu.dcache.LoadLockedReq.avgMissLatency::cpu.data 38764.705882                       # average LoadLockedReq miss latency ((Tick/Count))
system.cpu.dcache.LoadLockedReq.avgMissLatency::total 38764.705882                       # average LoadLockedReq miss latency ((Tick/Count))
system.cpu.dcache.LoadLockedReq.mshrHits::cpu.data           17                       # number of LoadLockedReq MSHR hits (Count)
system.cpu.dcache.LoadLockedReq.mshrHits::total           17                       # number of LoadLockedReq MSHR hits (Count)
system.cpu.dcache.ReadReq.hits::cpu.data    223527490                       # number of ReadReq hits (Count)
system.cpu.dcache.ReadReq.hits::total       223527490                       # number of ReadReq hits (Count)
system.cpu.dcache.ReadReq.misses::cpu.data       268096                       # number of ReadReq misses (Count)
system.cpu.dcache.ReadReq.misses::total        268096                       # number of ReadReq misses (Count)
system.cpu.dcache.ReadReq.missLatency::cpu.data  13575854000                       # number of ReadReq miss ticks (Tick)
system.cpu.dcache.ReadReq.missLatency::total  13575854000                       # number of ReadReq miss ticks (Tick)
system.cpu.dcache.ReadReq.accesses::cpu.data    223795586                       # number of ReadReq accesses(hits+misses) (Count)
system.cpu.dcache.ReadReq.accesses::total    223795586                       # number of ReadReq accesses(hits+misses) (Count)
system.cpu.dcache.ReadReq.missRate::cpu.data     0.001198                       # miss rate for ReadReq accesses (Ratio)
system.cpu.dcache.ReadReq.missRate::total     0.001198                       # miss rate for ReadReq accesses (Ratio)
system.cpu.dcache.ReadReq.avgMissLatency::cpu.data 50638.032645                       # average ReadReq miss latency ((Tick/Count))
system.cpu.dcache.ReadReq.avgMissLatency::total 50638.032645                       # average ReadReq miss latency ((Tick/Count))
system.cpu.dcache.ReadReq.mshrHits::cpu.data       200996                       # number of ReadReq MSHR hits (Count)
system.cpu.dcache.ReadReq.mshrHits::total       200996                       # number of ReadReq MSHR hits (Count)
system.cpu.dcache.ReadReq.mshrMisses::cpu.data        67100                       # number of ReadReq MSHR misses (Count)
system.cpu.dcache.ReadReq.mshrMisses::total        67100                       # number of ReadReq MSHR misses (Count)
system.cpu.dcache.ReadReq.mshrMissLatency::cpu.data   3797302500                       # number of ReadReq MSHR miss ticks (Tick)
system.cpu.dcache.ReadReq.mshrMissLatency::total   3797302500                       # number of ReadReq MSHR miss ticks (Tick)
system.cpu.dcache.ReadReq.mshrMissRate::cpu.data     0.000300                       # mshr miss rate for ReadReq accesses (Ratio)
system.cpu.dcache.ReadReq.mshrMissRate::total     0.000300                       # mshr miss rate for ReadReq accesses (Ratio)
system.cpu.dcache.ReadReq.avgMshrMissLatency::cpu.data 56591.691505                       # average ReadReq mshr miss latency ((Tick/Count))
system.cpu.dcache.ReadReq.avgMshrMissLatency::total 56591.691505                       # average ReadReq mshr miss latency ((Tick/Count))
system.cpu.dcache.StoreCondReq.hits::cpu.data          427                       # number of StoreCondReq hits (Count)
system.cpu.dcache.StoreCondReq.hits::total          427                       # number of StoreCondReq hits (Count)
system.cpu.dcache.StoreCondReq.accesses::cpu.data          427                       # number of StoreCondReq accesses(hits+misses) (Count)
system.cpu.dcache.StoreCondReq.accesses::total          427                       # number of StoreCondReq accesses(hits+misses) (Count)
system.cpu.dcache.WriteReq.hits::cpu.data    144465387                       # number of WriteReq hits (Count)
system.cpu.dcache.WriteReq.hits::total      144465387                       # number of WriteReq hits (Count)
system.cpu.dcache.WriteReq.misses::cpu.data      1154357                       # number of WriteReq misses (Count)
system.cpu.dcache.WriteReq.misses::total      1154357                       # number of WriteReq misses (Count)
system.cpu.dcache.WriteReq.missLatency::cpu.data  99109235481                       # number of WriteReq miss ticks (Tick)
system.cpu.dcache.WriteReq.missLatency::total  99109235481                       # number of WriteReq miss ticks (Tick)
system.cpu.dcache.WriteReq.accesses::cpu.data    145619744                       # number of WriteReq accesses(hits+misses) (Count)
system.cpu.dcache.WriteReq.accesses::total    145619744                       # number of WriteReq accesses(hits+misses) (Count)
system.cpu.dcache.WriteReq.missRate::cpu.data     0.007927                       # miss rate for WriteReq accesses (Ratio)
system.cpu.dcache.WriteReq.missRate::total     0.007927                       # miss rate for WriteReq accesses (Ratio)
system.cpu.dcache.WriteReq.avgMissLatency::cpu.data 85856.659145                       # average WriteReq miss latency ((Tick/Count))
system.cpu.dcache.WriteReq.avgMissLatency::total 85856.659145                       # average WriteReq miss latency ((Tick/Count))
system.cpu.dcache.WriteReq.mshrHits::cpu.data      1036379                       # number of WriteReq MSHR hits (Count)
system.cpu.dcache.WriteReq.mshrHits::total      1036379                       # number of WriteReq MSHR hits (Count)
system.cpu.dcache.WriteReq.mshrMisses::cpu.data       117978                       # number of WriteReq MSHR misses (Count)
system.cpu.dcache.WriteReq.mshrMisses::total       117978                       # number of WriteReq MSHR misses (Count)
system.cpu.dcache.WriteReq.mshrMissLatency::cpu.data  10175448995                       # number of WriteReq MSHR miss ticks (Tick)
system.cpu.dcache.WriteReq.mshrMissLatency::total  10175448995                       # number of WriteReq MSHR miss ticks (Tick)
system.cpu.dcache.WriteReq.mshrMissRate::cpu.data     0.000810                       # mshr miss rate for WriteReq accesses (Ratio)
system.cpu.dcache.WriteReq.mshrMissRate::total     0.000810                       # mshr miss rate for WriteReq accesses (Ratio)
system.cpu.dcache.WriteReq.avgMshrMissLatency::cpu.data 86248.698868                       # average WriteReq mshr miss latency ((Tick/Count))
system.cpu.dcache.WriteReq.avgMshrMissLatency::total 86248.698868                       # average WriteReq mshr miss latency ((Tick/Count))
system.cpu.dcache.power_state.pwrStateResidencyTicks::UNDEFINED 235456937500                       # Cumulative time (in ticks) in various power states (Tick)
system.cpu.dcache.tags.tagsInUse           511.886505                       # Average ticks per tags in use ((Tick/Count))
system.cpu.dcache.tags.totalRefs            368178822                       # Total number of references to valid blocks. (Count)
system.cpu.dcache.tags.sampledRefs             185076                       # Sample count of references to valid blocks. (Count)
system.cpu.dcache.tags.avgRefs            1989.338553                       # Average number of references to valid blocks. ((Count/Count))
system.cpu.dcache.tags.warmupTick              148500                       # The tick when the warmup percentage was hit. (Tick)
system.cpu.dcache.tags.occupancies::cpu.data   511.886505                       # Average occupied blocks per tick, per requestor ((Count/Tick))
system.cpu.dcache.tags.avgOccs::cpu.data     0.999778                       # Average percentage of cache occupancy ((Ratio/Tick))
system.cpu.dcache.tags.avgOccs::total        0.999778                       # Average percentage of cache occupancy ((Ratio/Tick))
system.cpu.dcache.tags.occupanciesTaskId::1024          512                       # Occupied blocks per task id (Count)
system.cpu.dcache.tags.ageTaskId_1024::0            3                       # Occupied blocks per task id, per block age (Count)
system.cpu.dcache.tags.ageTaskId_1024::1           19                       # Occupied blocks per task id, per block age (Count)
system.cpu.dcache.tags.ageTaskId_1024::2          197                       # Occupied blocks per task id, per block age (Count)
system.cpu.dcache.tags.ageTaskId_1024::3          126                       # Occupied blocks per task id, per block age (Count)
system.cpu.dcache.tags.ageTaskId_1024::4          167                       # Occupied blocks per task id, per block age (Count)
system.cpu.dcache.tags.ratioOccsTaskId::1024            1                       # Ratio of occupied blocks and all blocks, per task id (Ratio)
system.cpu.dcache.tags.tagAccesses         1477849924                       # Number of tag accesses (Count)
system.cpu.dcache.tags.dataAccesses        1477849924                       # Number of data accesses (Count)
system.cpu.dcache.tags.power_state.pwrStateResidencyTicks::UNDEFINED 235456937500                       # Cumulative time (in ticks) in various power states (Tick)
system.cpu.decode.idleCycles                147951675                       # Number of cycles decode is idle (Cycle)
system.cpu.decode.blockedCycles              95073383                       # Number of cycles decode is blocked (Cycle)
system.cpu.decode.runCycles                 200052150                       # Number of cycles decode is running (Cycle)
system.cpu.decode.unblockCycles              23982427                       # Number of cycles decode is unblocking (Cycle)
system.cpu.decode.squashCycles                3778318                       # Number of cycles decode is squashing (Cycle)
system.cpu.decode.branchResolved             61647177                       # Number of times decode resolved a branch (Count)
system.cpu.decode.branchMispred               2923618                       # Number of times decode detected a branch misprediction (Count)
system.cpu.decode.decodedInsts             1325810691                       # Number of instructions handled by decode (Count)
system.cpu.decode.squashedInsts                  8632                       # Number of squashed instructions handled by decode (Count)
system.cpu.fetch.icacheStallCycles          181640545                       # Number of cycles fetch is stalled on an Icache miss (Cycle)
system.cpu.fetch.insts                     1245431088                       # Number of instructions fetch has processed (Count)
system.cpu.fetch.branches                   235335792                       # Number of branches that fetch encountered (Count)
system.cpu.fetch.predictedBranches           87136932                       # Number of branches that fetch has predicted taken (Count)
system.cpu.fetch.cycles                     282913303                       # Number of cycles fetch has run and was not squashing or blocked (Cycle)
system.cpu.fetch.squashCycles                12567986                       # Number of cycles fetch has spent squashing (Cycle)
system.cpu.fetch.miscStallCycles                   10                       # Number of cycles fetch has spent waiting on interrupts, or bad addresses, or out of MSHRs (Cycle)
system.cpu.fetch.pendingTrapStallCycles            17                       # Number of stall cycles due to pending traps (Cycle)
system.cpu.fetch.icacheWaitRetryStallCycles           85                       # Number of stall cycles due to full MSHR (Cycle)
system.cpu.fetch.cacheLines                 178258926                       # Number of cache lines fetched (Count)
system.cpu.fetch.icacheSquashes               2926015                       # Number of outstanding Icache misses that were squashed (Count)
system.cpu.fetch.nisnDist::samples          470837953                       # Number of instructions fetched each cycle (Total) (Count)
system.cpu.fetch.nisnDist::mean              2.987329                       # Number of instructions fetched each cycle (Total) (Count)
system.cpu.fetch.nisnDist::stdev             3.408919                       # Number of instructions fetched each cycle (Total) (Count)
system.cpu.fetch.nisnDist::underflows               0      0.00%      0.00% # Number of instructions fetched each cycle (Total) (Count)
system.cpu.fetch.nisnDist::0                218754058     46.46%     46.46% # Number of instructions fetched each cycle (Total) (Count)
system.cpu.fetch.nisnDist::1                 29837111      6.34%     52.80% # Number of instructions fetched each cycle (Total) (Count)
system.cpu.fetch.nisnDist::2                 27979666      5.94%     58.74% # Number of instructions fetched each cycle (Total) (Count)
system.cpu.fetch.nisnDist::3                  7528307      1.60%     60.34% # Number of instructions fetched each cycle (Total) (Count)
system.cpu.fetch.nisnDist::4                 24323334      5.17%     65.51% # Number of instructions fetched each cycle (Total) (Count)
system.cpu.fetch.nisnDist::5                 22232886      4.72%     70.23% # Number of instructions fetched each cycle (Total) (Count)
system.cpu.fetch.nisnDist::6                 11694304      2.48%     72.71% # Number of instructions fetched each cycle (Total) (Count)
system.cpu.fetch.nisnDist::7                  8363406      1.78%     74.49% # Number of instructions fetched each cycle (Total) (Count)
system.cpu.fetch.nisnDist::8                120124881     25.51%    100.00% # Number of instructions fetched each cycle (Total) (Count)
system.cpu.fetch.nisnDist::overflows                0      0.00%    100.00% # Number of instructions fetched each cycle (Total) (Count)
system.cpu.fetch.nisnDist::min_value                0                       # Number of instructions fetched each cycle (Total) (Count)
system.cpu.fetch.nisnDist::max_value                8                       # Number of instructions fetched each cycle (Total) (Count)
system.cpu.fetch.nisnDist::total            470837953                       # Number of instructions fetched each cycle (Total) (Count)
system.cpu.fetch.branchRate                  0.499743                       # Number of branch fetches per cycle (Ratio)
system.cpu.fetch.rate                        2.644711                       # Number of inst fetches per cycle ((Count/Cycle))
system.cpu.icache.demandHits::cpu.inst      178256600                       # number of demand (read+write) hits (Count)
system.cpu.icache.demandHits::total         178256600                       # number of demand (read+write) hits (Count)
system.cpu.icache.overallHits::cpu.inst     178256600                       # number of overall hits (Count)
system.cpu.icache.overallHits::total        178256600                       # number of overall hits (Count)
system.cpu.icache.demandMisses::cpu.inst         2326                       # number of demand (read+write) misses (Count)
system.cpu.icache.demandMisses::total            2326                       # number of demand (read+write) misses (Count)
system.cpu.icache.overallMisses::cpu.inst         2326                       # number of overall misses (Count)
system.cpu.icache.overallMisses::total           2326                       # number of overall misses (Count)
system.cpu.icache.demandMissLatency::cpu.inst    128410500                       # number of demand (read+write) miss ticks (Tick)
system.cpu.icache.demandMissLatency::total    128410500                       # number of demand (read+write) miss ticks (Tick)
system.cpu.icache.overallMissLatency::cpu.inst    128410500                       # number of overall miss ticks (Tick)
system.cpu.icache.overallMissLatency::total    128410500                       # number of overall miss ticks (Tick)
system.cpu.icache.demandAccesses::cpu.inst    178258926                       # number of demand (read+write) accesses (Count)
system.cpu.icache.demandAccesses::total     178258926                       # number of demand (read+write) accesses (Count)
system.cpu.icache.overallAccesses::cpu.inst    178258926                       # number of overall (read+write) accesses (Count)
system.cpu.icache.overallAccesses::total    178258926                       # number of overall (read+write) accesses (Count)
system.cpu.icache.demandMissRate::cpu.inst     0.000013                       # miss rate for demand accesses (Ratio)
system.cpu.icache.demandMissRate::total      0.000013                       # miss rate for demand accesses (Ratio)
system.cpu.icache.overallMissRate::cpu.inst     0.000013                       # miss rate for overall accesses (Ratio)
system.cpu.icache.overallMissRate::total     0.000013                       # miss rate for overall accesses (Ratio)
system.cpu.icache.demandAvgMissLatency::cpu.inst 55206.577816                       # average overall miss latency in ticks ((Tick/Count))
system.cpu.icache.demandAvgMissLatency::total 55206.577816                       # average overall miss latency in ticks ((Tick/Count))
system.cpu.icache.overallAvgMissLatency::cpu.inst 55206.577816                       # average overall miss latency ((Tick/Count))
system.cpu.icache.overallAvgMissLatency::total 55206.577816                       # average overall miss latency ((Tick/Count))
system.cpu.icache.blockedCycles::no_mshrs         1318                       # number of cycles access was blocked (Cycle)
system.cpu.icache.blockedCycles::no_targets            0                       # number of cycles access was blocked (Cycle)
system.cpu.icache.blockedCauses::no_mshrs           23                       # number of times access was blocked (Count)
system.cpu.icache.blockedCauses::no_targets            0                       # number of times access was blocked (Count)
system.cpu.icache.avgBlocked::no_mshrs      57.304348                       # average number of cycles each access was blocked ((Cycle/Count))
system.cpu.icache.avgBlocked::no_targets          nan                       # average number of cycles each access was blocked ((Cycle/Count))
system.cpu.icache.demandMshrHits::cpu.inst          653                       # number of demand (read+write) MSHR hits (Count)
system.cpu.icache.demandMshrHits::total           653                       # number of demand (read+write) MSHR hits (Count)
system.cpu.icache.overallMshrHits::cpu.inst          653                       # number of overall MSHR hits (Count)
system.cpu.icache.overallMshrHits::total          653                       # number of overall MSHR hits (Count)
system.cpu.icache.demandMshrMisses::cpu.inst         1673                       # number of demand (read+write) MSHR misses (Count)
system.cpu.icache.demandMshrMisses::total         1673                       # number of demand (read+write) MSHR misses (Count)
system.cpu.icache.overallMshrMisses::cpu.inst         1673                       # number of overall MSHR misses (Count)
system.cpu.icache.overallMshrMisses::total         1673                       # number of overall MSHR misses (Count)
system.cpu.icache.demandMshrMissLatency::cpu.inst     95964000                       # number of demand (read+write) MSHR miss ticks (Tick)
system.cpu.icache.demandMshrMissLatency::total     95964000                       # number of demand (read+write) MSHR miss ticks (Tick)
system.cpu.icache.overallMshrMissLatency::cpu.inst     95964000                       # number of overall MSHR miss ticks (Tick)
system.cpu.icache.overallMshrMissLatency::total     95964000                       # number of overall MSHR miss ticks (Tick)
system.cpu.icache.demandMshrMissRate::cpu.inst     0.000009                       # mshr miss ratio for demand accesses (Ratio)
system.cpu.icache.demandMshrMissRate::total     0.000009                       # mshr miss ratio for demand accesses (Ratio)
system.cpu.icache.overallMshrMissRate::cpu.inst     0.000009                       # mshr miss ratio for overall accesses (Ratio)
system.cpu.icache.overallMshrMissRate::total     0.000009                       # mshr miss ratio for overall accesses (Ratio)
system.cpu.icache.demandAvgMshrMissLatency::cpu.inst 57360.430365                       # average overall mshr miss latency ((Tick/Count))
system.cpu.icache.demandAvgMshrMissLatency::total 57360.430365                       # average overall mshr miss latency ((Tick/Count))
system.cpu.icache.overallAvgMshrMissLatency::cpu.inst 57360.430365                       # average overall mshr miss latency ((Tick/Count))
system.cpu.icache.overallAvgMshrMissLatency::total 57360.430365                       # average overall mshr miss latency ((Tick/Count))
system.cpu.icache.replacements                   1160                       # number of replacements (Count)
system.cpu.icache.ReadReq.hits::cpu.inst    178256600                       # number of ReadReq hits (Count)
system.cpu.icache.ReadReq.hits::total       178256600                       # number of ReadReq hits (Count)
system.cpu.icache.ReadReq.misses::cpu.inst         2326                       # number of ReadReq misses (Count)
system.cpu.icache.ReadReq.misses::total          2326                       # number of ReadReq misses (Count)
system.cpu.icache.ReadReq.missLatency::cpu.inst    128410500                       # number of ReadReq miss ticks (Tick)
system.cpu.icache.ReadReq.missLatency::total    128410500                       # number of ReadReq miss ticks (Tick)
system.cpu.icache.ReadReq.accesses::cpu.inst    178258926                       # number of ReadReq accesses(hits+misses) (Count)
system.cpu.icache.ReadReq.accesses::total    178258926                       # number of ReadReq accesses(hits+misses) (Count)
system.cpu.icache.ReadReq.missRate::cpu.inst     0.000013                       # miss rate for ReadReq accesses (Ratio)
system.cpu.icache.ReadReq.missRate::total     0.000013                       # miss rate for ReadReq accesses (Ratio)
system.cpu.icache.ReadReq.avgMissLatency::cpu.inst 55206.577816                       # average ReadReq miss latency ((Tick/Count))
system.cpu.icache.ReadReq.avgMissLatency::total 55206.577816                       # average ReadReq miss latency ((Tick/Count))
system.cpu.icache.ReadReq.mshrHits::cpu.inst          653                       # number of ReadReq MSHR hits (Count)
system.cpu.icache.ReadReq.mshrHits::total          653                       # number of ReadReq MSHR hits (Count)
system.cpu.icache.ReadReq.mshrMisses::cpu.inst         1673                       # number of ReadReq MSHR misses (Count)
system.cpu.icache.ReadReq.mshrMisses::total         1673                       # number of ReadReq MSHR misses (Count)
system.cpu.icache.ReadReq.mshrMissLatency::cpu.inst     95964000                       # number of ReadReq MSHR miss ticks (Tick)
system.cpu.icache.ReadReq.mshrMissLatency::total     95964000                       # number of ReadReq MSHR miss ticks (Tick)
system.cpu.icache.ReadReq.mshrMissRate::cpu.inst     0.000009                       # mshr miss rate for ReadReq accesses (Ratio)
system.cpu.icache.ReadReq.mshrMissRate::total     0.000009                       # mshr miss rate for ReadReq accesses (Ratio)
system.cpu.icache.ReadReq.avgMshrMissLatency::cpu.inst 57360.430365                       # average ReadReq mshr miss latency ((Tick/Count))
system.cpu.icache.ReadReq.avgMshrMissLatency::total 57360.430365                       # average ReadReq mshr miss latency ((Tick/Count))
system.cpu.icache.power_state.pwrStateResidencyTicks::UNDEFINED 235456937500                       # Cumulative time (in ticks) in various power states (Tick)
system.cpu.icache.tags.tagsInUse           511.896571                       # Average ticks per tags in use ((Tick/Count))
system.cpu.icache.tags.totalRefs            178258273                       # Total number of references to valid blocks. (Count)
system.cpu.icache.tags.sampledRefs               1673                       # Sample count of references to valid blocks. (Count)
system.cpu.icache.tags.avgRefs           106550.073521                       # Average number of references to valid blocks. ((Count/Count))
system.cpu.icache.tags.warmupTick               81500                       # The tick when the warmup percentage was hit. (Tick)
system.cpu.icache.tags.occupancies::cpu.inst   511.896571                       # Average occupied blocks per tick, per requestor ((Count/Tick))
system.cpu.icache.tags.avgOccs::cpu.inst     0.999798                       # Average percentage of cache occupancy ((Ratio/Tick))
system.cpu.icache.tags.avgOccs::total        0.999798                       # Average percentage of cache occupancy ((Ratio/Tick))
system.cpu.icache.tags.occupanciesTaskId::1024          512                       # Occupied blocks per task id (Count)
system.cpu.icache.tags.ageTaskId_1024::4          512                       # Occupied blocks per task id, per block age (Count)
system.cpu.icache.tags.ratioOccsTaskId::1024            1                       # Ratio of occupied blocks and all blocks, per task id (Ratio)
system.cpu.icache.tags.tagAccesses          713037377                       # Number of tag accesses (Count)
system.cpu.icache.tags.dataAccesses         713037377                       # Number of data accesses (Count)
system.cpu.icache.tags.power_state.pwrStateResidencyTicks::UNDEFINED 235456937500                       # Cumulative time (in ticks) in various power states (Tick)
system.cpu.iew.idleCycles                           0                       # Number of cycles IEW is idle (Cycle)
system.cpu.iew.squashCycles                   3778318                       # Number of cycles IEW is squashing (Cycle)
system.cpu.iew.blockCycles                   15551508                       # Number of cycles IEW is blocking (Cycle)
system.cpu.iew.unblockCycles                     6870                       # Number of cycles IEW is unblocking (Cycle)
system.cpu.iew.dispatchedInsts             1274296232                       # Number of instructions dispatched to IQ (Count)
system.cpu.iew.dispSquashedInsts                 3033                       # Number of squashed instructions skipped by dispatch (Count)
system.cpu.iew.dispLoadInsts                281669342                       # Number of dispatched load instructions (Count)
system.cpu.iew.dispStoreInsts               159095765                       # Number of dispatched store instructions (Count)
system.cpu.iew.dispNonSpecInsts                  1549                       # Number of dispatched non-speculative instructions (Count)
system.cpu.iew.iqFullEvents                      1187                       # Number of times the IQ has become full, causing a stall (Count)
system.cpu.iew.lsqFullEvents                     5648                       # Number of times the LSQ has become full, causing a stall (Count)
system.cpu.iew.memOrderViolationEvents          16925                       # Number of memory order violations (Count)
system.cpu.iew.predictedTakenIncorrect           3041                       # Number of branches that were predicted taken incorrectly (Count)
system.cpu.iew.predictedNotTakenIncorrect      5013740                       # Number of branches that were predicted not taken incorrectly (Count)
system.cpu.iew.branchMispredicts              5016781                       # Number of branch mispredicts detected at execute (Count)
system.cpu.iew.instsToCommit               1184734879                       # Cumulative count of insts sent to commit (Count)
system.cpu.iew.writebackCount              1184710547                       # Cumulative count of insts written-back (Count)
system.cpu.iew.producerInst                 720315994                       # Number of instructions producing a value (Count)
system.cpu.iew.consumerInst                1273331165                       # Number of instructions consuming a value (Count)
system.cpu.iew.wbRate                        2.515769                       # Insts written-back per cycle ((Count/Cycle))
system.cpu.iew.wbFanout                      0.565694                       # Average fanout of values written-back ((Count/Count))
system.cpu.lsq0.forwLoads                    36647789                       # Number of loads that had data forwarded from stores (Count)
system.cpu.lsq0.squashedLoads                32686225                       # Number of loads squashed (Count)
system.cpu.lsq0.ignoredResponses               527115                       # Number of memory responses ignored because the instruction is squashed (Count)
system.cpu.lsq0.memOrderViolation               16925                       # Number of memory ordering violations (Count)
system.cpu.lsq0.squashedStores               10549850                       # Number of stores squashed (Count)
system.cpu.lsq0.rescheduledLoads             19085196                       # Number of loads that were rescheduled (Count)
system.cpu.lsq0.blockedByCache                     68                       # Number of times an access to memory failed due to the cache being blocked (Count)
system.cpu.lsq0.loadToUse::samples          248983107                       # Distribution of cycle latency between the first time a load is issued and its completion (Unspecified)
system.cpu.lsq0.loadToUse::mean              3.857604                       # Distribution of cycle latency between the first time a load is issued and its completion (Unspecified)
system.cpu.lsq0.loadToUse::stdev             5.667015                       # Distribution of cycle latency between the first time a load is issued and its completion (Unspecified)
system.cpu.lsq0.loadToUse::0-9              238462758     95.77%     95.77% # Distribution of cycle latency between the first time a load is issued and its completion (Unspecified)
system.cpu.lsq0.loadToUse::10-19              6694690      2.69%     98.46% # Distribution of cycle latency between the first time a load is issued and its completion (Unspecified)
system.cpu.lsq0.loadToUse::20-29              3243511      1.30%     99.77% # Distribution of cycle latency between the first time a load is issued and its completion (Unspecified)
system.cpu.lsq0.loadToUse::30-39               417754      0.17%     99.93% # Distribution of cycle latency between the first time a load is issued and its completion (Unspecified)
system.cpu.lsq0.loadToUse::40-49                 4631      0.00%     99.94% # Distribution of cycle latency between the first time a load is issued and its completion (Unspecified)
system.cpu.lsq0.loadToUse::50-59                  693      0.00%     99.94% # Distribution of cycle latency between the first time a load is issued and its completion (Unspecified)
system.cpu.lsq0.loadToUse::60-69                 8410      0.00%     99.94% # Distribution of cycle latency between the first time a load is issued and its completion (Unspecified)
system.cpu.lsq0.loadToUse::70-79                24277      0.01%     99.95% # Distribution of cycle latency between the first time a load is issued and its completion (Unspecified)
system.cpu.lsq0.loadToUse::80-89                23649      0.01%     99.96% # Distribution of cycle latency between the first time a load is issued and its completion (Unspecified)
system.cpu.lsq0.loadToUse::90-99                 4032      0.00%     99.96% # Distribution of cycle latency between the first time a load is issued and its completion (Unspecified)
system.cpu.lsq0.loadToUse::100-109                979      0.00%     99.96% # Distribution of cycle latency between the first time a load is issued and its completion (Unspecified)
system.cpu.lsq0.loadToUse::110-119               2804      0.00%     99.96% # Distribution of cycle latency between the first time a load is issued and its completion (Unspecified)
system.cpu.lsq0.loadToUse::120-129              19416      0.01%     99.97% # Distribution of cycle latency between the first time a load is issued and its completion (Unspecified)
system.cpu.lsq0.loadToUse::130-139              24023      0.01%     99.98% # Distribution of cycle latency between the first time a load is issued and its completion (Unspecified)
system.cpu.lsq0.loadToUse::140-149                246      0.00%     99.98% # Distribution of cycle latency between the first time a load is issued and its completion (Unspecified)
system.cpu.lsq0.loadToUse::150-159               1134      0.00%     99.98% # Distribution of cycle latency between the first time a load is issued and its completion (Unspecified)
system.cpu.lsq0.loadToUse::160-169                462      0.00%     99.98% # Distribution of cycle latency between the first time a load is issued and its completion (Unspecified)
system.cpu.lsq0.loadToUse::170-179                 31      0.00%     99.98% # Distribution of cycle latency between the first time a load is issued and its completion (Unspecified)
system.cpu.lsq0.loadToUse::180-189              16213      0.01%     99.99% # Distribution of cycle latency between the first time a load is issued and its completion (Unspecified)
system.cpu.lsq0.loadToUse::190-199              13086      0.01%     99.99% # Distribution of cycle latency between the first time a load is issued and its completion (Unspecified)
system.cpu.lsq0.loadToUse::200-209                 38      0.00%     99.99% # Distribution of cycle latency between the first time a load is issued and its completion (Unspecified)
[...]
system.mem_ctrl.dram.perBankRdBursts::7          4775                       # Per bank write bursts (Count)
system.mem_ctrl.dram.perBankRdBursts::8          4800                       # Per bank write bursts (Count)
system.mem_ctrl.dram.perBankRdBursts::9          4797                       # Per bank write bursts (Count)
system.mem_ctrl.dram.perBankRdBursts::10         4799                       # Per bank write bursts (Count)
system.mem_ctrl.dram.perBankRdBursts::11         4758                       # Per bank write bursts (Count)
system.mem_ctrl.dram.perBankRdBursts::12         4754                       # Per bank write bursts (Count)
system.mem_ctrl.dram.perBankRdBursts::13         4744                       # Per bank write bursts (Count)
system.mem_ctrl.dram.perBankRdBursts::14         4759                       # Per bank write bursts (Count)
system.mem_ctrl.dram.perBankRdBursts::15         4801                       # Per bank write bursts (Count)
system.mem_ctrl.dram.perBankRdBursts::16         4767                       # Per bank write bursts (Count)
system.mem_ctrl.dram.perBankRdBursts::17         4770                       # Per bank write bursts (Count)
system.mem_ctrl.dram.perBankRdBursts::18         4804                       # Per bank write bursts (Count)
system.mem_ctrl.dram.perBankRdBursts::19         4748                       # Per bank write bursts (Count)
system.mem_ctrl.dram.perBankRdBursts::20         4754                       # Per bank write bursts (Count)
system.mem_ctrl.dram.perBankRdBursts::21         4804                       # Per bank write bursts (Count)
system.mem_ctrl.dram.perBankRdBursts::22         4768                       # Per bank write bursts (Count)
system.mem_ctrl.dram.perBankRdBursts::23         4755                       # Per bank write bursts (Count)
system.mem_ctrl.dram.perBankRdBursts::24         4740                       # Per bank write bursts (Count)
system.mem_ctrl.dram.perBankRdBursts::25         4815                       # Per bank write bursts (Count)
system.mem_ctrl.dram.perBankRdBursts::26         4855                       # Per bank write bursts (Count)
system.mem_ctrl.dram.perBankRdBursts::27         4761                       # Per bank write bursts (Count)
system.mem_ctrl.dram.perBankRdBursts::28         4718                       # Per bank write bursts (Count)
system.mem_ctrl.dram.perBankRdBursts::29         4692                       # Per bank write bursts (Count)
system.mem_ctrl.dram.perBankRdBursts::30         4735                       # Per bank write bursts (Count)
system.mem_ctrl.dram.perBankRdBursts::31         4733                       # Per bank write bursts (Count)
system.mem_ctrl.dram.perBankWrBursts::0          2889                       # Per bank write bursts (Count)
system.mem_ctrl.dram.perBankWrBursts::1          2855                       # Per bank write bursts (Count)
system.mem_ctrl.dram.perBankWrBursts::2          2945                       # Per bank write bursts (Count)
system.mem_ctrl.dram.perBankWrBursts::3          2818                       # Per bank write bursts (Count)
system.mem_ctrl.dram.perBankWrBursts::4          2819                       # Per bank write bursts (Count)
system.mem_ctrl.dram.perBankWrBursts::5          2944                       # Per bank write bursts (Count)
system.mem_ctrl.dram.perBankWrBursts::6          2944                       # Per bank write bursts (Count)
system.mem_ctrl.dram.perBankWrBursts::7          2944                       # Per bank write bursts (Count)
system.mem_ctrl.dram.perBankWrBursts::8          2944                       # Per bank write bursts (Count)
system.mem_ctrl.dram.perBankWrBursts::9          2944                       # Per bank write bursts (Count)
system.mem_ctrl.dram.perBankWrBursts::10         2944                       # Per bank write bursts (Count)
system.mem_ctrl.dram.perBankWrBursts::11         2944                       # Per bank write bursts (Count)
system.mem_ctrl.dram.perBankWrBursts::12         2944                       # Per bank write bursts (Count)
system.mem_ctrl.dram.perBankWrBursts::13         2944                       # Per bank write bursts (Count)
system.mem_ctrl.dram.perBankWrBursts::14         2944                       # Per bank write bursts (Count)
system.mem_ctrl.dram.perBankWrBursts::15         2944                       # Per bank write bursts (Count)
system.mem_ctrl.dram.perBankWrBursts::16         2944                       # Per bank write bursts (Count)
system.mem_ctrl.dram.perBankWrBursts::17         2944                       # Per bank write bursts (Count)
system.mem_ctrl.dram.perBankWrBursts::18         2944                       # Per bank write bursts (Count)
system.mem_ctrl.dram.perBankWrBursts::19         2941                       # Per bank write bursts (Count)
system.mem_ctrl.dram.perBankWrBursts::20         2944                       # Per bank write bursts (Count)
system.mem_ctrl.dram.perBankWrBursts::21         2944                       # Per bank write bursts (Count)
system.mem_ctrl.dram.perBankWrBursts::22         2944                       # Per bank write bursts (Count)
system.mem_ctrl.dram.perBankWrBursts::23         2944                       # Per bank write bursts (Count)
system.mem_ctrl.dram.perBankWrBursts::24         2944                       # Per bank write bursts (Count)
system.mem_ctrl.dram.perBankWrBursts::25         2944                       # Per bank write bursts (Count)
system.mem_ctrl.dram.perBankWrBursts::26         2970                       # Per bank write bursts (Count)
system.mem_ctrl.dram.perBankWrBursts::27         2945                       # Per bank write bursts (Count)
system.mem_ctrl.dram.perBankWrBursts::28         2844                       # Per bank write bursts (Count)
system.mem_ctrl.dram.perBankWrBursts::29         2858                       # Per bank write bursts (Count)
system.mem_ctrl.dram.perBankWrBursts::30         2891                       # Per bank write bursts (Count)
system.mem_ctrl.dram.perBankWrBursts::31         2829                       # Per bank write bursts (Count)
system.mem_ctrl.dram.totQLat               3782215670                       # Total ticks spent queuing (Tick)
system.mem_ctrl.dram.totBusLat              509099612                       # Total ticks spent in databus transfers (Tick)
system.mem_ctrl.dram.totMemAccLat          6454835842                       # Total ticks spent from burst creation until serviced by the DRAM (Tick)
system.mem_ctrl.dram.avgQLat                 24754.18                       # Average queueing delay per DRAM burst ((Tick/Count))
system.mem_ctrl.dram.avgBusLat                3332.00                       # Average bus latency per DRAM burst ((Tick/Count))
system.mem_ctrl.dram.avgMemAccLat            42246.18                       # Average memory access latency per DRAM burst ((Tick/Count))
system.mem_ctrl.dram.readRowHits                96819                       # Number of row buffer hits during reads (Count)
system.mem_ctrl.dram.writeRowHits               82981                       # Number of row buffer hits during writes (Count)
system.mem_ctrl.dram.readRowHitRate             63.37                       # Row buffer hit rate for reads (Ratio)
system.mem_ctrl.dram.writeRowHitRate            88.76                       # Row buffer hit rate for writes (Ratio)
system.mem_ctrl.dram.bytesPerActivate::samples        66474                       # Bytes accessed per row activation (Byte)
system.mem_ctrl.dram.bytesPerActivate::mean   237.107320                       # Bytes accessed per row activation (Byte)
system.mem_ctrl.dram.bytesPerActivate::gmean   153.928593                       # Bytes accessed per row activation (Byte)
system.mem_ctrl.dram.bytesPerActivate::stdev   266.482114                       # Bytes accessed per row activation (Byte)
system.mem_ctrl.dram.bytesPerActivate::0-127        20401     30.69%     30.69% # Bytes accessed per row activation (Byte)
system.mem_ctrl.dram.bytesPerActivate::128-255        31387     47.22%     77.91% # Bytes accessed per row activation (Byte)
system.mem_ctrl.dram.bytesPerActivate::256-383         1076      1.62%     79.53% # Bytes accessed per row activation (Byte)
system.mem_ctrl.dram.bytesPerActivate::384-511         2461      3.70%     83.23% # Bytes accessed per row activation (Byte)
system.mem_ctrl.dram.bytesPerActivate::512-639         3952      5.95%     89.17% # Bytes accessed per row activation (Byte)
system.mem_ctrl.dram.bytesPerActivate::640-767         1786      2.69%     91.86% # Bytes accessed per row activation (Byte)
system.mem_ctrl.dram.bytesPerActivate::768-895          764      1.15%     93.01% # Bytes accessed per row activation (Byte)
system.mem_ctrl.dram.bytesPerActivate::896-1023          700      1.05%     94.06% # Bytes accessed per row activation (Byte)
system.mem_ctrl.dram.bytesPerActivate::1024-1151         3947      5.94%    100.00% # Bytes accessed per row activation (Byte)
system.mem_ctrl.dram.bytesPerActivate::total        66474                       # Bytes accessed per row activation (Byte)
system.mem_ctrl.dram.bytesRead                9778624                       # Total bytes read (Byte)
system.mem_ctrl.dram.bytesWritten             5982976                       # Total bytes written (Byte)
system.mem_ctrl.dram.avgRdBW                41.530414                       # Average DRAM read bandwidth in MiBytes/s ((Byte/Second))
system.mem_ctrl.dram.avgWrBW                25.410065                       # Average DRAM write bandwidth in MiBytes/s ((Byte/Second))
system.mem_ctrl.dram.peakBW                  19207.00                       # Theoretical peak bandwidth in MiByte/s ((Byte/Second))
system.mem_ctrl.dram.busUtil                     0.35                       # Data bus utilization in percentage (Ratio)
system.mem_ctrl.dram.busUtilRead                 0.22                       # Data bus utilization in percentage for reads (Ratio)
system.mem_ctrl.dram.busUtilWrite                0.13                       # Data bus utilization in percentage for writes (Ratio)
system.mem_ctrl.dram.pageHitRate                73.01                       # Row buffer hit rate, read and write combined (Ratio)
system.mem_ctrl.dram.power_state.pwrStateResidencyTicks::UNDEFINED 235456937500                       # Cumulative time (in ticks) in various power states (Tick)
system.mem_ctrl.dram.rank0.actEnergy     103264997.472019                       # Energy for activate commands per rank (pJ) (Joule)
system.mem_ctrl.dram.rank0.preEnergy     137289490.228809                       # Energy for precharge commands per rank (pJ) (Joule)
system.mem_ctrl.dram.rank0.readEnergy    322086090.009560                       # Energy for read commands per rank (pJ) (Joule)
system.mem_ctrl.dram.rank0.writeEnergy   175559348.160002                       # Energy for write commands per rank (pJ) (Joule)
system.mem_ctrl.dram.rank0.refreshEnergy 41895204824.149101                       # Energy for refresh commands per rank (pJ) (Joule)
system.mem_ctrl.dram.rank0.actBackEnergy 78400300930.548065                       # Energy for active background per rank (pJ) (Joule)
system.mem_ctrl.dram.rank0.preBackEnergy 93466509795.451324                       # Energy for precharge background per rank (pJ) (Joule)
system.mem_ctrl.dram.rank0.actPowerDownEnergy            0                       # Energy for active power-down per rank (pJ) (Joule)
system.mem_ctrl.dram.rank0.prePowerDownEnergy            0                       # Energy for precharge power-down per rank (pJ) (Joule)
system.mem_ctrl.dram.rank0.selfRefreshEnergy            0                       # Energy for self refresh per rank (pJ) (Joule)
system.mem_ctrl.dram.rank0.totalEnergy   214500215476.027313                       # Total energy per rank (pJ) (Joule)
system.mem_ctrl.dram.rank0.averagePower    910.995521                       # Core power per rank (mW) (Watt)
system.mem_ctrl.dram.rank0.totalIdleTime            0                       # Total Idle time Per DRAM Rank (Tick)
system.mem_ctrl.dram.rank0.pwrStateTime::IDLE 142514677862                       # Time in different power states (Tick)
system.mem_ctrl.dram.rank0.pwrStateTime::REF  10584350000                       # Time in different power states (Tick)
system.mem_ctrl.dram.rank0.pwrStateTime::SREF            0                       # Time in different power states (Tick)
system.mem_ctrl.dram.rank0.pwrStateTime::PRE_PDN            0                       # Time in different power states (Tick)
system.mem_ctrl.dram.rank0.pwrStateTime::ACT  82357909638                       # Time in different power states (Tick)
system.mem_ctrl.dram.rank0.pwrStateTime::ACT_PDN            0                       # Time in different power states (Tick)
system.mem_ctrl.dram.rank1.actEnergy     104054041.728018                       # Energy for activate commands per rank (pJ) (Joule)
system.mem_ctrl.dram.rank1.preEnergy     138334368.110407                       # Energy for precharge commands per rank (pJ) (Joule)
system.mem_ctrl.dram.rank1.readEnergy    320601260.179160                       # Energy for read commands per rank (pJ) (Joule)
system.mem_ctrl.dram.rank1.writeEnergy   175799891.904002                       # Energy for write commands per rank (pJ) (Joule)
system.mem_ctrl.dram.rank1.refreshEnergy 41895204824.149101                       # Energy for refresh commands per rank (pJ) (Joule)
system.mem_ctrl.dram.rank1.actBackEnergy 82358614779.426727                       # Energy for active background per rank (pJ) (Joule)
system.mem_ctrl.dram.rank1.preBackEnergy 90425093504.787201                       # Energy for precharge background per rank (pJ) (Joule)
system.mem_ctrl.dram.rank1.actPowerDownEnergy            0                       # Energy for active power-down per rank (pJ) (Joule)
system.mem_ctrl.dram.rank1.prePowerDownEnergy            0                       # Energy for precharge power-down per rank (pJ) (Joule)
system.mem_ctrl.dram.rank1.selfRefreshEnergy            0                       # Energy for self refresh per rank (pJ) (Joule)
system.mem_ctrl.dram.rank1.totalEnergy   215417702670.296356                       # Total energy per rank (pJ) (Joule)
system.mem_ctrl.dram.rank1.averagePower    914.892145                       # Core power per rank (mW) (Watt)
system.mem_ctrl.dram.rank1.totalIdleTime            0                       # Total Idle time Per DRAM Rank (Tick)
system.mem_ctrl.dram.rank1.pwrStateTime::IDLE 137844001260                       # Time in different power states (Tick)
system.mem_ctrl.dram.rank1.pwrStateTime::REF  10584350000                       # Time in different power states (Tick)
system.mem_ctrl.dram.rank1.pwrStateTime::SREF            0                       # Time in different power states (Tick)
system.mem_ctrl.dram.rank1.pwrStateTime::PRE_PDN            0                       # Time in different power states (Tick)
system.mem_ctrl.dram.rank1.pwrStateTime::ACT  87028586240                       # Time in different power states (Tick)
system.mem_ctrl.dram.rank1.pwrStateTime::ACT_PDN            0                       # Time in different power states (Tick)
system.mem_ctrl.power_state.pwrStateResidencyTicks::UNDEFINED 235456937500                       # Cumulative time (in ticks) in various power states (Tick)
system.membus.transDist::ReadResp               34919                       # Transaction distribution (Count)
system.membus.transDist::WritebackDirty         93541                       # Transaction distribution (Count)
system.membus.transDist::CleanEvict             26018                       # Transaction distribution (Count)
system.membus.transDist::ReadExReq             117927                       # Transaction distribution (Count)
system.membus.transDist::ReadExResp            117927                       # Transaction distribution (Count)
system.membus.transDist::ReadSharedReq          34919                       # Transaction distribution (Count)
system.membus.pktCount_system.l2cache.mem_side_port::system.mem_ctrl.port       425251                       # Packet count per connected requestor and responder (Count)
system.membus.pktCount::total                  425251                       # Packet count per connected requestor and responder (Count)
system.membus.pktSize_system.l2cache.mem_side_port::system.mem_ctrl.port     15768768                       # Cumulative packet size per connected requestor and responder (Byte)
system.membus.pktSize::total                 15768768                       # Cumulative packet size per connected requestor and responder (Byte)
system.membus.snoops                                0                       # Total snoops (Count)
system.membus.snoopTraffic                          0                       # Total snoop traffic (Byte)
system.membus.snoopFanout::samples             152846                       # Request fanout histogram (Count)
system.membus.snoopFanout::mean                     0                       # Request fanout histogram (Count)
system.membus.snoopFanout::stdev                    0                       # Request fanout histogram (Count)
system.membus.snoopFanout::underflows               0      0.00%      0.00% # Request fanout histogram (Count)
system.membus.snoopFanout::0                   152846    100.00%    100.00% # Request fanout histogram (Count)
system.membus.snoopFanout::1                        0      0.00%    100.00% # Request fanout histogram (Count)
system.membus.snoopFanout::overflows                0      0.00%    100.00% # Request fanout histogram (Count)
system.membus.snoopFanout::min_value                0                       # Request fanout histogram (Count)
system.membus.snoopFanout::max_value                0                       # Request fanout histogram (Count)
system.membus.snoopFanout::total               152846                       # Request fanout histogram (Count)
system.membus.power_state.pwrStateResidencyTicks::UNDEFINED 235456937500                       # Cumulative time (in ticks) in various power states (Tick)
system.membus.reqLayer0.occupancy           323284500                       # Layer occupancy (ticks) (Tick)
system.membus.reqLayer0.utilization               0.0                       # Layer utilization (Ratio)
system.membus.respLayer0.occupancy          401921142                       # Layer occupancy (ticks) (Tick)
system.membus.respLayer0.utilization              0.0                       # Layer utilization (Ratio)
system.membus.snoop_filter.totRequests         272405                       # Total number of requests made to the snoop filter. (Count)
system.membus.snoop_filter.hitSingleRequests       119572                       # Number of requests hitting in the snoop filter with a single holder of the requested data. (Count)
system.membus.snoop_filter.hitMultiRequests            0                       # Number of requests hitting in the snoop filter with multiple (>1) holders of the requested data. (Count)
system.membus.snoop_filter.totSnoops                0                       # Total number of snoops made to the snoop filter. (Count)
system.membus.snoop_filter.hitSingleSnoops            0                       # Number of snoops hitting in the snoop filter with a single holder of the requested data. (Count)
system.membus.snoop_filter.hitMultiSnoops            0                       # Number of snoops hitting in the snoop filter with multiple (>1) holders of the requested data. (Count)
system.workload.inst.arm                            0                       # number of arm instructions executed (Count)
system.workload.inst.quiesce                        0                       # number of quiesce instructions executed (Count)

---------- End Simulation Statistics   ----------
