
---------- Begin Simulation Statistics ----------
simSeconds                                   0.292090                       # Number of seconds simulated (Second)
simTicks                                 292089501000                       # Number of ticks simulated (Tick)
finalTick                                292089501000                       # Number of ticks from beginning of simulation (restored from checkpoints and never reset) (Tick)
simFreq                                  1000000000000                       # The number of ticks per simulated second ((Tick/Second))
hostSeconds                                   4459.65                       # Real time elapsed on the host (Second)
hostTickRate                                 65496000                       # The number of ticks simulated per host second (ticks/s) ((Tick/Second))
hostMemory                                    2294808                       # Number of bytes of host memory used (Byte)
simInsts                                   1000000000                       # Number of instructions simulated (Count)
simOps                                     1132163591                       # Number of ops (including micro ops) simulated (Count)
hostInstRate                                   224233                       # Simulator instruction rate (inst/s) ((Count/Second))
hostOpRate                                     253868                       # Simulator op (including micro ops) rate (op/s) ((Count/Second))
system.clk_domain.clock                           500                       # Clock period in ticks (Tick)
system.clk_domain.voltage_domain.voltage            1                       # Voltage in Volts (Volt)
system.cpu.numCycles                        584179003                       # Number of cpu cycles simulated (Cycle)
system.cpu.numWorkItemsStarted                      0                       # Number of work items this cpu started (Count)
system.cpu.numWorkItemsCompleted                    0                       # Number of work items this cpu completed (Count)
system.cpu.instsAdded                      1561663938                       # Number of instructions added to the IQ (excludes non-spec) (Count)
system.cpu.nonSpecInstsAdded                     1934                       # Number of non-speculative instructions added to the IQ (Count)
system.cpu.instsIssued                     1357478348                       # Number of instructions issued (Count)
system.cpu.squashedInstsIssued                   6951                       # Number of squashed instructions issued (Count)
system.cpu.squashedInstsExamined            429502234                       # Number of squashed instructions iterated over during squash; mainly for profiling (Count)
system.cpu.squashedOperandsExamined        1122736226                       # Number of squashed operands that are examined and possibly removed from graph (Count)
system.cpu.squashedNonSpecRemoved                  82                       # Number of squashed non-spec instructions that were removed (Count)
system.cpu.numIssuedDist::samples           584104032                       # Number of insts issued each cycle (Count)
system.cpu.numIssuedDist::mean               2.324035                       # Number of insts issued each cycle (Count)
system.cpu.numIssuedDist::stdev              2.014872                       # Number of insts issued each cycle (Count)
system.cpu.numIssuedDist::underflows                0      0.00%      0.00% # Number of insts issued each cycle (Count)
system.cpu.numIssuedDist::0                 137908690     23.61%     23.61% # Number of insts issued each cycle (Count)
system.cpu.numIssuedDist::1                  99707912     17.07%     40.68% # Number of insts issued each cycle (Count)
system.cpu.numIssuedDist::2                 105611072     18.08%     58.76% # Number of insts issued each cycle (Count)
system.cpu.numIssuedDist::3                  87976336     15.06%     73.82% # Number of insts issued each cycle (Count)
system.cpu.numIssuedDist::4                  57824180      9.90%     83.72% # Number of insts issued each cycle (Count)
system.cpu.numIssuedDist::5                  48504619      8.30%     92.03% # Number of insts issued each cycle (Count)
system.cpu.numIssuedDist::6                  25187876      4.31%     96.34% # Number of insts issued each cycle (Count)
system.cpu.numIssuedDist::7                  13394563      2.29%     98.63% # Number of insts issued each cycle (Count)
system.cpu.numIssuedDist::8                   7988784      1.37%    100.00% # Number of insts issued each cycle (Count)
system.cpu.numIssuedDist::overflows                 0      0.00%    100.00% # Number of insts issued each cycle (Count)
system.cpu.numIssuedDist::min_value                 0                       # Number of insts issued each cycle (Count)
system.cpu.numIssuedDist::max_value                 8                       # Number of insts issued each cycle (Count)
system.cpu.numIssuedDist::total             584104032                       # Number of insts issued each cycle (Count)
system.cpu.statFuBusy::No_OpClass                   0      0.00%      0.00% # attempts to use FU when none available (Count)
system.cpu.statFuBusy::IntAlu                 2922798     16.25%     16.25% # attempts to use FU when none available (Count)
system.cpu.statFuBusy::IntMult                      0      0.00%     16.25% # attempts to use FU when none available (Count)
system.cpu.statFuBusy::IntDiv                       0      0.00%     16.25% # attempts to use FU when none available (Count)
system.cpu.statFuBusy::FloatAdd                     0      0.00%     16.25% # attempts to use FU when none available (Count)
system.cpu.statFuBusy::FloatCmp                     0      0.00%     16.25% # attempts to use FU when none available (Count)
system.cpu.statFuBusy::FloatCvt                     0      0.00%     16.25% # attempts to use FU when none available (Count)
system.cpu.statFuBusy::FloatMult                    0      0.00%     16.25% # attempts to use FU when none available (Count)
system.cpu.statFuBusy::FloatMultAcc                 0      0.00%     16.25% # attempts to use FU when none available (Count)
system.cpu.statFuBusy::FloatDiv                     0      0.00%     16.25% # attempts to use FU when none available (Count)
system.cpu.statFuBusy::FloatMisc                    0      0.00%     16.25% # attempts to use FU when none available (Count)
system.cpu.statFuBusy::FloatSqrt                    0      0.00%     16.25% # attempts to use FU when none available (Count)
system.cpu.statFuBusy::SimdAdd                      0      0.00%     16.25% # attempts to use FU when none available (Count)
system.cpu.statFuBusy::SimdAddAcc                   0      0.00%     16.25% # attempts to use FU when none available (Count)
system.cpu.statFuBusy::SimdAlu                      0      0.00%     16.25% # attempts to use FU when none available (Count)
system.cpu.statFuBusy::SimdCmp                      0      0.00%     16.25% # attempts to use FU when none available (Count)
system.cpu.statFuBusy::SimdCvt                      0      0.00%     16.25% # attempts to use FU when none available (Count)
system.cpu.statFuBusy::SimdMisc                     0      0.00%     16.25% # attempts to use FU when none available (Count)
system.cpu.statFuBusy::SimdMult                     0      0.00%     16.25% # attempts to use FU when none available (Count)
system.cpu.statFuBusy::SimdMultAcc                  0      0.00%     16.25% # attempts to use FU when none available (Count)
system.cpu.statFuBusy::SimdShift                    0      0.00%     16.25% # attempts to use FU when none available (Count)
system.cpu.statFuBusy::SimdShiftAcc                 0      0.00%     16.25% # attempts to use FU when none available (Count)
system.cpu.statFuBusy::SimdDiv                      0      0.00%     16.25% # attempts to use FU when none available (Count)
system.cpu.statFuBusy::SimdSqrt                     0      0.00%     16.25% # attempts to use FU when none available (Count)
system.cpu.statFuBusy::SimdFloatAdd                 0      0.00%     16.25% # attempts to use FU when none available (Count)
system.cpu.statFuBusy::SimdFloatAlu                 0      0.00%     16.25% # attempts to use FU when none available (Count)
system.cpu.statFuBusy::SimdFloatCmp                 0      0.00%     16.25% # attempts to use FU when none available (Count)
system.cpu.statFuBusy::SimdFloatCvt                 0      0.00%     16.25% # attempts to use FU when none available (Count)
system.cpu.statFuBusy::SimdFloatDiv                 0      0.00%     16.25% # attempts to use FU when none available (Count)
system.cpu.statFuBusy::SimdFloatMisc                0      0.00%     16.25% # attempts to use FU when none available (Count)
system.cpu.statFuBusy::SimdFloatMult                0      0.00%     16.25% # attempts to use FU when none available (Count)
system.cpu.statFuBusy::SimdFloatMultAcc             0      0.00%     16.25% # attempts to use FU when none available (Count)
system.cpu.statFuBusy::SimdFloatSqrt                0      0.00%     16.25% # attempts to use FU when none available (Count)
system.cpu.statFuBusy::SimdReduceAdd                0      0.00%     16.25% # attempts to use FU when none available (Count)
system.cpu.statFuBusy::SimdReduceAlu                0      0.00%     16.25% # attempts to use FU when none available (Count)
system.cpu.statFuBusy::SimdReduceCmp                0      0.00%     16.25% # attempts to use FU when none available (Count)
system.cpu.statFuBusy::SimdFloatReduceAdd            0      0.00%     16.25% # attempts to use FU when none available (Count)
system.cpu.statFuBusy::SimdFloatReduceCmp            0      0.00%     16.25% # attempts to use FU when none available (Count)
system.cpu.statFuBusy::SimdAes                      0      0.00%     16.25% # attempts to use FU when none available (Count)
system.cpu.statFuBusy::SimdAesMix                   0      0.00%     16.25% # attempts to use FU when none available (Count)
system.cpu.statFuBusy::SimdSha1Hash                 0      0.00%     16.25% # attempts to use FU when none available (Count)
system.cpu.statFuBusy::SimdSha1Hash2                0      0.00%     16.25% # attempts to use FU when none available (Count)
system.cpu.statFuBusy::SimdSha256Hash               0      0.00%     16.25% # attempts to use FU when none available (Count)
system.cpu.statFuBusy::SimdSha256Hash2              0      0.00%     16.25% # attempts to use FU when none available (Count)
system.cpu.statFuBusy::SimdShaSigma2                0      0.00%     16.25% # attempts to use FU when none available (Count)
system.cpu.statFuBusy::SimdShaSigma3                0      0.00%     16.25% # attempts to use FU when none available (Count)
system.cpu.statFuBusy::SimdPredAlu                  0      0.00%     16.25% # attempts to use FU when none available (Count)
system.cpu.statFuBusy::MemRead               10797348     60.01%     76.26% # attempts to use FU when none available (Count)
system.cpu.statFuBusy::MemWrite               4271435     23.74%    100.00% # attempts to use FU when none available (Count)
system.cpu.statFuBusy::FloatMemRead                 0      0.00%    100.00% # attempts to use FU when none available (Count)
system.cpu.statFuBusy::FloatMemWrite                0      0.00%    100.00% # attempts to use FU when none available (Count)
system.cpu.statFuBusy::IprAccess                    0      0.00%    100.00% # attempts to use FU when none available (Count)
system.cpu.statFuBusy::InstPrefetch                 0      0.00%    100.00% # attempts to use FU when none available (Count)
system.cpu.statIssuedInstType_0::No_OpClass            3      0.00%      0.00% # Number of instructions issued per FU type, per thread (Count)
system.cpu.statIssuedInstType_0::IntAlu     841242751     61.97%     61.97% # Number of instructions issued per FU type, per thread (Count)
system.cpu.statIssuedInstType_0::IntMult      7133921      0.53%     62.50% # Number of instructions issued per FU type, per thread (Count)
system.cpu.statIssuedInstType_0::IntDiv             0      0.00%     62.50% # Number of instructions issued per FU type, per thread (Count)
system.cpu.statIssuedInstType_0::FloatAdd            0      0.00%     62.50% # Number of instructions issued per FU type, per thread (Count)
system.cpu.statIssuedInstType_0::FloatCmp            0      0.00%     62.50% # Number of instructions issued per FU type, per thread (Count)
system.cpu.statIssuedInstType_0::FloatCvt            0      0.00%     62.50% # Number of instructions issued per FU type, per thread (Count)
system.cpu.statIssuedInstType_0::FloatMult            0      0.00%     62.50% # Number of instructions issued per FU type, per thread (Count)
system.cpu.statIssuedInstType_0::FloatMultAcc            0      0.00%     62.50% # Number of instructions issued per FU type, per thread (Count)
system.cpu.statIssuedInstType_0::FloatDiv            0      0.00%     62.50% # Number of instructions issued per FU type, per thread (Count)
system.cpu.statIssuedInstType_0::FloatMisc            0      0.00%     62.50% # Number of instructions issued per FU type, per thread (Count)
system.cpu.statIssuedInstType_0::FloatSqrt            0      0.00%     62.50% # Number of instructions issued per FU type, per thread (Count)
system.cpu.statIssuedInstType_0::SimdAdd            0      0.00%     62.50% # Number of instructions issued per FU type, per thread (Count)
system.cpu.statIssuedInstType_0::SimdAddAcc            0      0.00%     62.50% # Number of instructions issued per FU type, per thread (Count)
system.cpu.statIssuedInstType_0::SimdAlu            0      0.00%     62.50% # Number of instructions issued per FU type, per thread (Count)
system.cpu.statIssuedInstType_0::SimdCmp            0      0.00%     62.50% # Number of instructions issued per FU type, per thread (Count)
system.cpu.statIssuedInstType_0::SimdCvt            0      0.00%     62.50% # Number of instructions issued per FU type, per thread (Count)
system.cpu.statIssuedInstType_0::SimdMisc            0      0.00%     62.50% # Number of instructions issued per FU type, per thread (Count)
system.cpu.statIssuedInstType_0::SimdMult            0      0.00%     62.50% # Number of instructions issued per FU type, per thread (Count)
system.cpu.statIssuedInstType_0::SimdMultAcc            0      0.00%     62.50% # Number of instructions issued per FU type, per thread (Count)
system.cpu.statIssuedInstType_0::SimdShift            0      0.00%     62.50% # Number of instructions issued per FU type, per thread (Count)
system.cpu.statIssuedInstType_0::SimdShiftAcc            0      0.00%     62.50% # Number of instructions issued per FU type, per thread (Count)
system.cpu.statIssuedInstType_0::SimdDiv            0      0.00%     62.50% # Number of instructions issued per FU type, per thread (Count)
system.cpu.statIssuedInstType_0::SimdSqrt            0      0.00%     62.50% # Number of instructions issued per FU type, per thread (Count)
system.cpu.statIssuedInstType_0::SimdFloatAdd            0      0.00%     62.50% # Number of instructions issued per FU type, per thread (Count)
system.cpu.statIssuedInstType_0::SimdFloatAlu            0      0.00%     62.50% # Number of instructions issued per FU type, per thread (Count)
system.cpu.statIssuedInstType_0::SimdFloatCmp            0      0.00%     62.50% # Number of instructions issued per FU type, per thread (Count)
system.cpu.statIssuedInstType_0::SimdFloatCvt            0      0.00%     62.50% # Number of instructions issued per FU type, per thread (Count)
system.cpu.statIssuedInstType_0::SimdFloatDiv            0      0.00%     62.50% # Number of instructions issued per FU type, per thread (Count)
system.cpu.statIssuedInstType_0::SimdFloatMisc            0      0.00%     62.50% # Number of instructions issued per FU type, per thread (Count)
system.cpu.statIssuedInstType_0::SimdFloatMult            0      0.00%     62.50% # Number of instructions issued per FU type, per thread (Count)
system.cpu.statIssuedInstType_0::SimdFloatMultAcc            0      0.00%     62.50% # Number of instructions issued per FU type, per thread (Count)
system.cpu.statIssuedInstType_0::SimdFloatSqrt            0      0.00%     62.50% # Number of instructions issued per FU type, per thread (Count)
system.cpu.statIssuedInstType_0::SimdReduceAdd            0      0.00%     62.50% # Number of instructions issued per FU type, per thread (Count)
system.cpu.statIssuedInstType_0::SimdReduceAlu            0      0.00%     62.50% # Number of instructions issued per FU type, per thread (Count)
system.cpu.statIssuedInstType_0::SimdReduceCmp            0      0.00%     62.50% # Number of instructions issued per FU type, per thread (Count)
system.cpu.statIssuedInstType_0::SimdFloatReduceAdd            0      0.00%     62.50% # Number of instructions issued per FU type, per thread (Count)
system.cpu.statIssuedInstType_0::SimdFloatReduceCmp            0      0.00%     62.50% # Number of instructions issued per FU type, per thread (Count)
system.cpu.statIssuedInstType_0::SimdAes            0      0.00%     62.50% # Number of instructions issued per FU type, per thread (Count)
system.cpu.statIssuedInstType_0::SimdAesMix            0      0.00%     62.50% # Number of instructions issued per FU type, per thread (Count)
system.cpu.statIssuedInstType_0::SimdSha1Hash            0      0.00%     62.50% # Number of instructions issued per FU type, per thread (Count)
system.cpu.statIssuedInstType_0::SimdSha1Hash2            0      0.00%     62.50% # Number of instructions issued per FU type, per thread (Count)
system.cpu.statIssuedInstType_0::SimdSha256Hash            0      0.00%     62.50% # Number of instructions issued per FU type, per thread (Count)
system.cpu.statIssuedInstType_0::SimdSha256Hash2            0      0.00%     62.50% # Number of instructions issued per FU type, per thread (Count)
system.cpu.statIssuedInstType_0::SimdShaSigma2            0      0.00%     62.50% # Number of instructions issued per FU type, per thread (Count)
system.cpu.statIssuedInstType_0::SimdShaSigma3            0      0.00%     62.50% # Number of instructions issued per FU type, per thread (Count)
system.cpu.statIssuedInstType_0::SimdPredAlu            0      0.00%     62.50% # Number of instructions issued per FU type, per thread (Count)
system.cpu.statIssuedInstType_0::MemRead    338348088     24.92%     87.42% # Number of instructions issued per FU type, per thread (Count)
system.cpu.statIssuedInstType_0::MemWrite    170753585     12.58%    100.00% # Number of instructions issued per FU type, per thread (Count)
system.cpu.statIssuedInstType_0::FloatMemRead            0      0.00%    100.00% # Number of instructions issued per FU type, per thread (Count)
system.cpu.statIssuedInstType_0::FloatMemWrite            0      0.00%    100.00% # Number of instructions issued per FU type, per thread (Count)
system.cpu.statIssuedInstType_0::IprAccess            0      0.00%    100.00% # Number of instructions issued per FU type, per thread (Count)
system.cpu.statIssuedInstType_0::InstPrefetch            0      0.00%    100.00% # Number of instructions issued per FU type, per thread (Count)
system.cpu.statIssuedInstType_0::total     1357478348                       # Number of instructions issued per FU type, per thread (Count)
system.cpu.issueRate                         2.323737                       # Inst issue rate ((Count/Cycle))
system.cpu.fuBusy                            17991581                       # FU busy when requested (Count)
system.cpu.fuBusyRate                        0.013254                       # FU busy rate (busy events/executed inst) ((Count/Count))
system.cpu.intInstQueueReads               3317059259                       # Number of integer instruction queue reads (Count)
system.cpu.intInstQueueWrites              1991185952                       # Number of integer instruction queue writes (Count)
system.cpu.intInstQueueWakeupAccesses      1302156166                       # Number of integer instruction queue wakeup accesses (Count)
system.cpu.fpInstQueueReads                         0                       # Number of floating instruction queue reads (Count)
system.cpu.fpInstQueueWrites                        0                       # Number of floating instruction queue writes (Count)
system.cpu.fpInstQueueWakeupAccesses                0                       # Number of floating instruction queue wakeup accesses (Count)
system.cpu.vecInstQueueReads                        0                       # Number of vector instruction queue reads (Count)
system.cpu.vecInstQueueWrites                       0                       # Number of vector instruction queue writes (Count)
system.cpu.vecInstQueueWakeupAccesses               0                       # Number of vector instruction queue wakeup accesses (Count)
system.cpu.intAluAccesses                  1375469926                       # Number of integer alu accesses (Count)
system.cpu.fpAluAccesses                            0                       # Number of floating point alu accesses (Count)
system.cpu.vecAluAccesses                           0                       # Number of vector alu accesses (Count)
system.cpu.numInsts                        1336946359                       # Number of executed instructions (Count)
system.cpu.numLoadInsts                     326248622                       # Number of load instructions executed (Count)
system.cpu.numSquashedInsts                  20531988                       # Number of squashed instructions skipped in execute (Count)
system.cpu.numSwp                                   0                       # Number of swp insts executed (Count)
system.cpu.numNop                                   0                       # Number of nop insts executed (Count)
system.cpu.numRefs                          494009153                       # Number of memory reference insts executed (Count)
system.cpu.numBranches                      214347495                       # Number of branches executed (Count)
system.cpu.numStoreInsts                    167760531                       # Number of stores executed (Count)
system.cpu.numRate                           2.288590                       # Inst execution rate ((Count/Cycle))
system.cpu.timesIdled                             882                       # Number of times that the entire CPU went into an idle state and unscheduled itself (Count)
system.cpu.idleCycles                           74971                       # Total number of cycles that the CPU has spent unscheduled due to idling (Cycle)
system.cpu.committedInsts                  1000000000                       # Number of Instructions Simulated (Count)
system.cpu.committedOps                    1132163591                       # Number of Ops (including micro ops) Simulated (Count)
system.cpu.cpi                               0.584179                       # CPI: Cycles Per Instruction ((Cycle/Count))
system.cpu.totalCpi                          0.584179                       # CPI: Total CPI of All Threads ((Cycle/Count))
system.cpu.ipc                               1.711804                       # IPC: Instructions Per Cycle ((Count/Cycle))
system.cpu.totalIpc                          1.711804                       # IPC: Total IPC of All Threads ((Count/Cycle))
system.cpu.intRegfileReads                 1507674673                       # Number of integer regfile reads (Count)
system.cpu.intRegfileWrites                 789339360                       # Number of integer regfile writes (Count)
system.cpu.vecRegfileReads                         16                       # number of vector regfile reads (Count)
system.cpu.ccRegfileReads                  4889143465                       # number of cc regfile reads (Count)
system.cpu.ccRegfileWrites                  652595835                       # number of cc regfile writes (Count)
system.cpu.miscRegfileReads                 460531236                       # number of misc regfile reads (Count)
system.cpu.miscRegfileWrites                     1709                       # number of misc regfile writes (Count)
system.cpu.MemDepUnit__0.insertedLoads      358031046                       # Number of loads inserted to the mem dependence unit. (Count)
system.cpu.MemDepUnit__0.insertedStores     191212985                       # Number of stores inserted to the mem dependence unit. (Count)
system.cpu.MemDepUnit__0.conflictingLoads     43455845                       # Number of conflicting loads. (Count)
system.cpu.MemDepUnit__0.conflictingStores     30321431                       # Number of conflicting stores. (Count)
system.cpu.MemDepUnit__1.insertedLoads              0                       # Number of loads inserted to the mem dependence unit. (Count)
system.cpu.MemDepUnit__1.insertedStores             0                       # Number of stores inserted to the mem dependence unit. (Count)
system.cpu.MemDepUnit__1.conflictingLoads            0                       # Number of conflicting loads. (Count)
system.cpu.MemDepUnit__1.conflictingStores            0                       # Number of conflicting stores. (Count)
system.cpu.MemDepUnit__2.insertedLoads              0                       # Number of loads inserted to the mem dependence unit. (Count)
system.cpu.MemDepUnit__2.insertedStores             0                       # Number of stores inserted to the mem dependence unit. (Count)
system.cpu.MemDepUnit__2.conflictingLoads            0                       # Number of conflicting loads. (Count)
system.cpu.MemDepUnit__2.conflictingStores            0                       # Number of conflicting stores. (Count)
system.cpu.MemDepUnit__3.insertedLoads              0                       # Number of loads inserted to the mem dependence unit. (Count)
system.cpu.MemDepUnit__3.insertedStores             0                       # Number of stores inserted to the mem dependence unit. (Count)
system.cpu.MemDepUnit__3.conflictingLoads            0                       # Number of conflicting loads. (Count)
system.cpu.MemDepUnit__3.conflictingStores            0                       # Number of conflicting stores. (Count)
system.cpu.branchPred.lookups               307504537                       # Number of BP lookups (Count)
system.cpu.branchPred.condPredicted         229361245                       # Number of conditional branches predicted (Count)
system.cpu.branchPred.condIncorrect          12113238                       # Number of conditional branches incorrect (Count)
system.cpu.branchPred.BTBLookups            102141691                       # Number of BTB lookups (Count)
system.cpu.branchPred.BTBHits                85016106                       # Number of BTB hits (Count)
system.cpu.branchPred.BTBHitRatio            0.832335                       # BTB Hit Ratio (Ratio)
system.cpu.branchPred.RASUsed                35909968                       # Number of times the RAS was used to get a target. (Count)
system.cpu.branchPred.RASIncorrect               1143                       # Number of incorrect RAS predictions. (Count)
system.cpu.branchPred.indirectLookups         2927533                       # Number of indirect predictor lookups. (Count)
system.cpu.branchPred.indirectHits            2507752                       # Number of indirect target hits. (Count)
system.cpu.branchPred.indirectMisses           419781                       # Number of indirect misses. (Count)
system.cpu.branchPred.indirectMispredicted          343                       # Number of mispredicted indirect branches. (Count)
system.cpu.commit.commitSquashedInsts       429400572                       # The number of squashed insts skipped by commit (Count)
system.cpu.commit.commitNonSpecStalls            1852                       # The number of times commit has been forced to stall to communicate backwards (Count)
system.cpu.commit.branchMispredicts           8770762                       # The number of times a branch was mispredicted (Count)
system.cpu.commit.numCommittedDist::samples    526432871                       # Number of insts commited each cycle (Count)
system.cpu.commit.numCommittedDist::mean     2.150632                       # Number of insts commited each cycle (Count)
system.cpu.commit.numCommittedDist::stdev     2.616904                       # Number of insts commited each cycle (Count)
system.cpu.commit.numCommittedDist::underflows            0      0.00%      0.00% # Number of insts commited each cycle (Count)
system.cpu.commit.numCommittedDist::0       160352296     30.46%     30.46% # Number of insts commited each cycle (Count)
system.cpu.commit.numCommittedDist::1       154174876     29.29%     59.75% # Number of insts commited each cycle (Count)
system.cpu.commit.numCommittedDist::2        79659169     15.13%     74.88% # Number of insts commited each cycle (Count)
system.cpu.commit.numCommittedDist::3        14688703      2.79%     77.67% # Number of insts commited each cycle (Count)
system.cpu.commit.numCommittedDist::4        25030661      4.75%     82.42% # Number of insts commited each cycle (Count)
system.cpu.commit.numCommittedDist::5        14226303      2.70%     85.13% # Number of insts commited each cycle (Count)
system.cpu.commit.numCommittedDist::6         6709023      1.27%     86.40% # Number of insts commited each cycle (Count)
system.cpu.commit.numCommittedDist::7         9638749      1.83%     88.23% # Number of insts commited each cycle (Count)
system.cpu.commit.numCommittedDist::8        61953091     11.77%    100.00% # Number of insts commited each cycle (Count)
system.cpu.commit.numCommittedDist::overflows            0      0.00%    100.00% # Number of insts commited each cycle (Count)
system.cpu.commit.numCommittedDist::min_value            0                       # Number of insts commited each cycle (Count)
system.cpu.commit.numCommittedDist::max_value            8                       # Number of insts commited each cycle (Count)
system.cpu.commit.numCommittedDist::total    526432871                       # Number of insts commited each cycle (Count)
system.cpu.commit.instsCommitted           1000000000                       # Number of instructions committed (Count)
system.cpu.commit.opsCommitted             1132163591                       # Number of ops (including micro ops) committed (Count)
system.cpu.commit.memRefs                   397529001                       # Number of memory references committed (Count)
system.cpu.commit.loads                     248983110                       # Number of loads committed (Count)
system.cpu.commit.amos                              0                       # Number of atomic instructions committed (Count)
system.cpu.commit.membars                         431                       # Number of memory barriers committed (Count)
system.cpu.commit.branches                  188421440                       # Number of branches committed (Count)
system.cpu.commit.vectorInstructions                0                       # Number of committed Vector instructions. (Count)
system.cpu.commit.floating                          0                       # Number of committed floating point instructions. (Count)
system.cpu.commit.integer                   982994693                       # Number of committed integer instructions. (Count)
system.cpu.commit.functionCalls              18373461                       # Number of function calls committed. (Count)
system.cpu.commit.committedInstType_0::No_OpClass            0      0.00%      0.00% # Class of committed instruction (Count)
system.cpu.commit.committedInstType_0::IntAlu    728754673     64.37%     64.37% # Class of committed instruction (Count)
system.cpu.commit.committedInstType_0::IntMult      5879917      0.52%     64.89% # Class of committed instruction (Count)
system.cpu.commit.committedInstType_0::IntDiv            0      0.00%     64.89% # Class of committed instruction (Count)
system.cpu.commit.committedInstType_0::FloatAdd            0      0.00%     64.89% # Class of committed instruction (Count)
system.cpu.commit.committedInstType_0::FloatCmp            0      0.00%     64.89% # Class of committed instruction (Count)
system.cpu.commit.committedInstType_0::FloatCvt            0      0.00%     64.89% # Class of committed instruction (Count)
system.cpu.commit.committedInstType_0::FloatMult            0      0.00%     64.89% # Class of committed instruction (Count)
system.cpu.commit.committedInstType_0::FloatMultAcc            0      0.00%     64.89% # Class of committed instruction (Count)
system.cpu.commit.committedInstType_0::FloatDiv            0      0.00%     64.89% # Class of committed instruction (Count)
system.cpu.commit.committedInstType_0::FloatMisc            0      0.00%     64.89% # Class of committed instruction (Count)
system.cpu.commit.committedInstType_0::FloatSqrt            0      0.00%     64.89% # Class of committed instruction (Count)
system.cpu.commit.committedInstType_0::SimdAdd            0      0.00%     64.89% # Class of committed instruction (Count)
system.cpu.commit.committedInstType_0::SimdAddAcc            0      0.00%     64.89% # Class of committed instruction (Count)
system.cpu.commit.committedInstType_0::SimdAlu            0      0.00%     64.89% # Class of committed instruction (Count)
system.cpu.commit.committedInstType_0::SimdCmp            0      0.00%     64.89% # Class of committed instruction (Count)
system.cpu.commit.committedInstType_0::SimdCvt            0      0.00%     64.89% # Class of committed instruction (Count)
system.cpu.commit.committedInstType_0::SimdMisc            0      0.00%     64.89% # Class of committed instruction (Count)
system.cpu.commit.committedInstType_0::SimdMult            0      0.00%     64.89% # Class of committed instruction (Count)
system.cpu.commit.committedInstType_0::SimdMultAcc            0      0.00%     64.89% # Class of committed instruction (Count)
system.cpu.commit.committedInstType_0::SimdShift            0      0.00%     64.89% # Class of committed instruction (Count)
system.cpu.commit.committedInstType_0::SimdShiftAcc            0      0.00%     64.89% # Class of committed instruction (Count)
system.cpu.commit.committedInstType_0::SimdDiv            0      0.00%     64.89% # Class of committed instruction (Count)
system.cpu.commit.committedInstType_0::SimdSqrt            0      0.00%     64.89% # Class of committed instruction (Count)
system.cpu.commit.committedInstType_0::SimdFloatAdd            0      0.00%     64.89% # Class of committed instruction (Count)
system.cpu.commit.committedInstType_0::SimdFloatAlu            0      0.00%     64.89% # Class of committed instruction (Count)
system.cpu.commit.committedInstType_0::SimdFloatCmp            0      0.00%     64.89% # Class of committed instruction (Count)
system.cpu.commit.committedInstType_0::SimdFloatCvt            0      0.00%     64.89% # Class of committed instruction (Count)
system.cpu.commit.committedInstType_0::SimdFloatDiv            0      0.00%     64.89% # Class of committed instruction (Count)
system.cpu.commit.committedInstType_0::SimdFloatMisc            0      0.00%     64.89% # Class of committed instruction (Count)
system.cpu.commit.committedInstType_0::SimdFloatMult            0      0.00%     64.89% # Class of committed instruction (Count)
system.cpu.commit.committedInstType_0::SimdFloatMultAcc            0      0.00%     64.89% # Class of committed instruction (Count)
system.cpu.commit.committedInstType_0::SimdFloatSqrt            0      0.00%     64.89% # Class of committed instruction (Count)
system.cpu.commit.committedInstType_0::SimdReduceAdd            0      0.00%     64.89% # Class of committed instruction (Count)
system.cpu.commit.committedInstType_0::SimdReduceAlu            0      0.00%     64.89% # Class of committed instruction (Count)
system.cpu.commit.committedInstType_0::SimdReduceCmp            0      0.00%     64.89% # Class of committed instruction (Count)
system.cpu.commit.committedInstType_0::SimdFloatReduceAdd            0      0.00%     64.89% # Class of committed instruction (Count)
system.cpu.commit.committedInstType_0::SimdFloatReduceCmp            0      0.00%     64.89% # Class of committed instruction (Count)
system.cpu.commit.committedInstType_0::SimdAes            0      0.00%     64.89% # Class of committed instruction (Count)
system.cpu.commit.committedInstType_0::SimdAesMix            0      0.00%     64.89% # Class of committed instruction (Count)
system.cpu.commit.committedInstType_0::SimdSha1Hash            0      0.00%     64.89% # Class of committed instruction (Count)
system.cpu.commit.committedInstType_0::SimdSha1Hash2            0      0.00%     64.89% # Class of committed instruction (Count)
system.cpu.commit.committedInstType_0::SimdSha256Hash            0      0.00%     64.89% # Class of committed instruction (Count)
system.cpu.commit.committedInstType_0::SimdSha256Hash2            0      0.00%     64.89% # Class of committed instruction (Count)
system.cpu.commit.committedInstType_0::SimdShaSigma2            0      0.00%     64.89% # Class of committed instruction (Count)
system.cpu.commit.committedInstType_0::SimdShaSigma3            0      0.00%     64.89% # Class of committed instruction (Count)
system.cpu.commit.committedInstType_0::SimdPredAlu            0      0.00%     64.89% # Class of committed instruction (Count)
system.cpu.commit.committedInstType_0::MemRead    248983110     21.99%     86.88% # Class of committed instruction (Count)
system.cpu.commit.committedInstType_0::MemWrite    148545891     13.12%    100.00% # Class of committed instruction (Count)
system.cpu.commit.committedInstType_0::FloatMemRead            0      0.00%    100.00% # Class of committed instruction (Count)
system.cpu.commit.committedInstType_0::FloatMemWrite            0      0.00%    100.00% # Class of committed instruction (Count)
system.cpu.commit.committedInstType_0::IprAccess            0      0.00%    100.00% # Class of committed instruction (Count)
system.cpu.commit.committedInstType_0::InstPrefetch            0      0.00%    100.00% # Class of committed instruction (Count)
system.cpu.commit.committedInstType_0::total   1132163591                       # Class of committed instruction (Count)
system.cpu.commit.commitEligibleSamples      61953091                       # number cycles where commit BW limit reached (Cycle)
system.cpu.dcache.demandHits::cpu.data      411084290                       # number of demand (read+write) hits (Count)
system.cpu.dcache.demandHits::total         411084290                       # number of demand (read+write) hits (Count)
system.cpu.dcache.overallHits::cpu.data     411084290                       # number of overall hits (Count)
system.cpu.dcache.overallHits::total        411084290                       # number of overall hits (Count)
system.cpu.dcache.demandMisses::cpu.data      1417545                       # number of demand (read+write) misses (Count)
system.cpu.dcache.demandMisses::total         1417545                       # number of demand (read+write) misses (Count)
system.cpu.dcache.overallMisses::cpu.data      1417545                       # number of overall misses (Count)
system.cpu.dcache.overallMisses::total        1417545                       # number of overall misses (Count)
system.cpu.dcache.demandMissLatency::cpu.data 111021161478                       # number of demand (read+write) miss ticks (Tick)
system.cpu.dcache.demandMissLatency::total 111021161478                       # number of demand (read+write) miss ticks (Tick)
system.cpu.dcache.overallMissLatency::cpu.data 111021161478                       # number of overall miss ticks (Tick)
system.cpu.dcache.overallMissLatency::total 111021161478                       # number of overall miss ticks (Tick)
system.cpu.dcache.demandAccesses::cpu.data    412501835                       # number of demand (read+write) accesses (Count)
system.cpu.dcache.demandAccesses::total     412501835                       # number of demand (read+write) accesses (Count)
system.cpu.dcache.overallAccesses::cpu.data    412501835                       # number of overall (read+write) accesses (Count)
system.cpu.dcache.overallAccesses::total    412501835                       # number of overall (read+write) accesses (Count)
system.cpu.dcache.demandMissRate::cpu.data     0.003436                       # miss rate for demand accesses (Ratio)
system.cpu.dcache.demandMissRate::total      0.003436                       # miss rate for demand accesses (Ratio)
system.cpu.dcache.overallMissRate::cpu.data     0.003436                       # miss rate for overall accesses (Ratio)
system.cpu.dcache.overallMissRate::total     0.003436                       # miss rate for overall accesses (Ratio)
system.cpu.dcache.demandAvgMissLatency::cpu.data 78319.320712                       # average overall miss latency in ticks ((Tick/Count))
system.cpu.dcache.demandAvgMissLatency::total 78319.320712                       # average overall miss latency in ticks ((Tick/Count))
system.cpu.dcache.overallAvgMissLatency::cpu.data 78319.320712                       # average overall miss latency ((Tick/Count))
system.cpu.dcache.overallAvgMissLatency::total 78319.320712                       # average overall miss latency ((Tick/Count))
system.cpu.dcache.blockedCycles::no_mshrs         3659                       # number of cycles access was blocked (Cycle)
system.cpu.dcache.blockedCycles::no_targets          353                       # number of cycles access was blocked (Cycle)
system.cpu.dcache.blockedCauses::no_mshrs          103                       # number of times access was blocked (Count)
system.cpu.dcache.blockedCauses::no_targets            5                       # number of times access was blocked (Count)
system.cpu.dcache.avgBlocked::no_mshrs      35.524272                       # average number of cycles each access was blocked ((Cycle/Count))
system.cpu.dcache.avgBlocked::no_targets    70.600000                       # average number of cycles each access was blocked ((Cycle/Count))
system.cpu.dcache.writebacks::writebacks       150021                       # number of writebacks (Count)
system.cpu.dcache.writebacks::total            150021                       # number of writebacks (Count)
system.cpu.dcache.demandMshrHits::cpu.data      1232484                       # number of demand (read+write) MSHR hits (Count)
system.cpu.dcache.demandMshrHits::total       1232484                       # number of demand (read+write) MSHR hits (Count)
system.cpu.dcache.overallMshrHits::cpu.data      1232484                       # number of overall MSHR hits (Count)
system.cpu.dcache.overallMshrHits::total      1232484                       # number of overall MSHR hits (Count)
system.cpu.dcache.demandMshrMisses::cpu.data       185061                       # number of demand (read+write) MSHR misses (Count)
system.cpu.dcache.demandMshrMisses::total       185061                       # number of demand (read+write) MSHR misses (Count)
system.cpu.dcache.overallMshrMisses::cpu.data       185061                       # number of overall MSHR misses (Count)
system.cpu.dcache.overallMshrMisses::total       185061                       # number of overall MSHR misses (Count)
system.cpu.dcache.demandMshrMissLatency::cpu.data  13847754994                       # number of demand (read+write) MSHR miss ticks (Tick)
system.cpu.dcache.demandMshrMissLatency::total  13847754994                       # number of demand (read+write) MSHR miss ticks (Tick)
system.cpu.dcache.overallMshrMissLatency::cpu.data  13847754994                       # number of overall MSHR miss ticks (Tick)
system.cpu.dcache.overallMshrMissLatency::total  13847754994                       # number of overall MSHR miss ticks (Tick)
system.cpu.dcache.demandMshrMissRate::cpu.data     0.000449                       # mshr miss ratio for demand accesses (Ratio)
system.cpu.dcache.demandMshrMissRate::total     0.000449                       # mshr miss ratio for demand accesses (Ratio)
system.cpu.dcache.overallMshrMissRate::cpu.data     0.000449                       # mshr miss ratio for overall accesses (Ratio)
system.cpu.dcache.overallMshrMissRate::total     0.000449                       # mshr miss ratio for overall accesses (Ratio)
system.cpu.dcache.demandAvgMshrMissLatency::cpu.data 74828.056662                       # average overall mshr miss latency ((Tick/Count))
system.cpu.dcache.demandAvgMshrMissLatency::total 74828.056662                       # average overall mshr miss latency ((Tick/Count))
system.cpu.dcache.overallAvgMshrMissLatency::cpu.data 74828.056662                       # average overall mshr miss latency ((Tick/Count))
system.cpu.dcache.overallAvgMshrMissLatency::total 74828.056662                       # average overall mshr miss latency ((Tick/Count))
system.cpu.dcache.replacements                 184547                       # number of replacements (Count)
system.cpu.dcache.LoadLockedReq.hits::cpu.data          438                       # number of LoadLockedReq hits (Count)
system.cpu.dcache.LoadLockedReq.hits::total          438                       # number of LoadLockedReq hits (Count)
system.cpu.dcache.LoadLockedReq.misses::cpu.data           16                       # number of LoadLockedReq misses (Count)
system.cpu.dcache.LoadLockedReq.misses::total           16                       # number of LoadLockedReq misses (Count)
system.cpu.dcache.LoadLockedReq.missLatency::cpu.data       511000                       # number of LoadLockedReq miss ticks (Tick)
system.cpu.dcache.LoadLockedReq.missLatency::total       511000                       # number of LoadLockedReq miss ticks (Tick)
system.cpu.dcache.LoadLockedReq.accesses::cpu.data          454                       # number of LoadLockedReq accesses(hits+misses) (Count)
system.cpu.dcache.LoadLockedReq.accesses::total          454                       # number of LoadLockedReq accesses(hits+misses) (Count)
system.cpu.dcache.LoadLockedReq.missRate::cpu.data     0.035242                       # miss rate for LoadLockedReq accesses (Ratio)
system.cpu.dcache.LoadLockedReq.missRate::total     0.035242                       # miss rate for LoadLockedReq accesses (Ratio)
system.cpu.dcache.LoadLockedReq.avgMissLatency::cpu.data 31937.500000                       # average LoadLockedReq miss latency ((Tick/Count))
system.cpu.dcache.LoadLockedReq.avgMissLatency::total 31937.500000                       # average LoadLockedReq miss latency ((Tick/Count))
system.cpu.dcache.LoadLockedReq.mshrHits::cpu.data           16                       # number of LoadLockedReq MSHR hits (Count)
system.cpu.dcache.LoadLockedReq.mshrHits::total           16                       # number of LoadLockedReq MSHR hits (Count)
system.cpu.dcache.ReadReq.hits::cpu.data    266618887                       # number of ReadReq hits (Count)
system.cpu.dcache.ReadReq.hits::total       266618887                       # number of ReadReq hits (Count)
system.cpu.dcache.ReadReq.misses::cpu.data       263204                       # number of ReadReq misses (Count)
system.cpu.dcache.ReadReq.misses::total        263204                       # number of ReadReq misses (Count)
system.cpu.dcache.ReadReq.missLatency::cpu.data  13514105500                       # number of ReadReq miss ticks (Tick)
system.cpu.dcache.ReadReq.missLatency::total  13514105500                       # number of ReadReq miss ticks (Tick)
system.cpu.dcache.ReadReq.accesses::cpu.data    266882091                       # number of ReadReq accesses(hits+misses) (Count)
system.cpu.dcache.ReadReq.accesses::total    266882091                       # number of ReadReq accesses(hits+misses) (Count)
system.cpu.dcache.ReadReq.missRate::cpu.data     0.000986                       # miss rate for ReadReq accesses (Ratio)
system.cpu.dcache.ReadReq.missRate::total     0.000986                       # miss rate for ReadReq accesses (Ratio)
system.cpu.dcache.ReadReq.avgMissLatency::cpu.data 51344.605325                       # average ReadReq miss latency ((Tick/Count))
system.cpu.dcache.ReadReq.avgMissLatency::total 51344.605325                       # average ReadReq miss latency ((Tick/Count))
system.cpu.dcache.ReadReq.mshrHits::cpu.data       196110                       # number of ReadReq MSHR hits (Count)
system.cpu.dcache.ReadReq.mshrHits::total       196110                       # number of ReadReq MSHR hits (Count)
system.cpu.dcache.ReadReq.mshrMisses::cpu.data        67094                       # number of ReadReq MSHR misses (Count)
system.cpu.dcache.ReadReq.mshrMisses::total        67094                       # number of ReadReq MSHR misses (Count)
system.cpu.dcache.ReadReq.mshrMissLatency::cpu.data   3707996500                       # number of ReadReq MSHR miss ticks (Tick)
system.cpu.dcache.ReadReq.mshrMissLatency::total   3707996500                       # number of ReadReq MSHR miss ticks (Tick)
system.cpu.dcache.ReadReq.mshrMissRate::cpu.data     0.000251                       # mshr miss rate for ReadReq accesses (Ratio)
system.cpu.dcache.ReadReq.mshrMissRate::total     0.000251                       # mshr miss rate for ReadReq accesses (Ratio)
system.cpu.dcache.ReadReq.avgMshrMissLatency::cpu.data 55265.694399                       # average ReadReq mshr miss latency ((Tick/Count))
system.cpu.dcache.ReadReq.avgMshrMissLatency::total 55265.694399                       # average ReadReq mshr miss latency ((Tick/Count))
system.cpu.dcache.StoreCondReq.hits::cpu.data          427                       # number of StoreCondReq hits (Count)
system.cpu.dcache.StoreCondReq.hits::total          427                       # number of StoreCondReq hits (Count)
system.cpu.dcache.StoreCondReq.accesses::cpu.data          427                       # number of StoreCondReq accesses(hits+misses) (Count)
system.cpu.dcache.StoreCondReq.accesses::total          427                       # number of StoreCondReq accesses(hits+misses) (Count)
system.cpu.dcache.WriteReq.hits::cpu.data    144465403                       # number of WriteReq hits (Count)
system.cpu.dcache.WriteReq.hits::total      144465403                       # number of WriteReq hits (Count)
system.cpu.dcache.WriteReq.misses::cpu.data      1154341                       # number of WriteReq misses (Count)
system.cpu.dcache.WriteReq.misses::total      1154341                       # number of WriteReq misses (Count)
system.cpu.dcache.WriteReq.missLatency::cpu.data  97507055978                       # number of WriteReq miss ticks (Tick)
system.cpu.dcache.WriteReq.missLatency::total  97507055978                       # number of WriteReq miss ticks (Tick)
system.cpu.dcache.WriteReq.accesses::cpu.data    145619744                       # number of WriteReq accesses(hits+misses) (Count)
system.cpu.dcache.WriteReq.accesses::total    145619744                       # number of WriteReq accesses(hits+misses) (Count)
system.cpu.dcache.WriteReq.missRate::cpu.data     0.007927                       # miss rate for WriteReq accesses (Ratio)
system.cpu.dcache.WriteReq.missRate::total     0.007927                       # miss rate for WriteReq accesses (Ratio)
system.cpu.dcache.WriteReq.avgMissLatency::cpu.data 84469.888861                       # average WriteReq miss latency ((Tick/Count))
system.cpu.dcache.WriteReq.avgMissLatency::total 84469.888861                       # average WriteReq miss latency ((Tick/Count))
system.cpu.dcache.WriteReq.mshrHits::cpu.data      1036374                       # number of WriteReq MSHR hits (Count)
system.cpu.dcache.WriteReq.mshrHits::total      1036374                       # number of WriteReq MSHR hits (Count)
system.cpu.dcache.WriteReq.mshrMisses::cpu.data       117967                       # number of WriteReq MSHR misses (Count)
system.cpu.dcache.WriteReq.mshrMisses::total       117967                       # number of WriteReq MSHR misses (Count)
system.cpu.dcache.WriteReq.mshrMissLatency::cpu.data  10139758494                       # number of WriteReq MSHR miss ticks (Tick)
system.cpu.dcache.WriteReq.mshrMissLatency::total  10139758494                       # number of WriteReq MSHR miss ticks (Tick)
system.cpu.dcache.WriteReq.mshrMissRate::cpu.data     0.000810                       # mshr miss rate for WriteReq accesses (Ratio)
system.cpu.dcache.WriteReq.mshrMissRate::total     0.000810                       # mshr miss rate for WriteReq accesses (Ratio)
system.cpu.dcache.WriteReq.avgMshrMissLatency::cpu.data 85954.194766                       # average WriteReq mshr miss latency ((Tick/Count))
system.cpu.dcache.WriteReq.avgMshrMissLatency::total 85954.194766                       # average WriteReq mshr miss latency ((Tick/Count))
system.cpu.dcache.power_state.pwrStateResidencyTicks::UNDEFINED 292089501000                       # Cumulative time (in ticks) in various power states (Tick)
system.cpu.dcache.tags.tagsInUse           511.904170                       # Average ticks per tags in use ((Tick/Count))
system.cpu.dcache.tags.totalRefs            411270217                       # Total number of references to valid blocks. (Count)
system.cpu.dcache.tags.sampledRefs             185059                       # Sample count of references to valid blocks. (Count)
system.cpu.dcache.tags.avgRefs            2222.373497                       # Average number of references to valid blocks. ((Count/Count))
system.cpu.dcache.tags.warmupTick              148500                       # The tick when the warmup percentage was hit. (Tick)
system.cpu.dcache.tags.occupancies::cpu.data   511.904170                       # Average occupied blocks per tick, per requestor ((Count/Tick))
system.cpu.dcache.tags.avgOccs::cpu.data     0.999813                       # Average percentage of cache occupancy ((Ratio/Tick))
system.cpu.dcache.tags.avgOccs::total        0.999813                       # Average percentage of cache occupancy ((Ratio/Tick))
system.cpu.dcache.tags.occupanciesTaskId::1024          512                       # Occupied blocks per task id (Count)
system.cpu.dcache.tags.ageTaskId_1024::0            2                       # Occupied blocks per task id, per block age (Count)
system.cpu.dcache.tags.ageTaskId_1024::1           16                       # Occupied blocks per task id, per block age (Count)
system.cpu.dcache.tags.ageTaskId_1024::2          160                       # Occupied blocks per task id, per block age (Count)
system.cpu.dcache.tags.ageTaskId_1024::3          167                       # Occupied blocks per task id, per block age (Count)
system.cpu.dcache.tags.ageTaskId_1024::4          167                       # Occupied blocks per task id, per block age (Count)
system.cpu.dcache.tags.ratioOccsTaskId::1024            1                       # Ratio of occupied blocks and all blocks, per task id (Ratio)
system.cpu.dcache.tags.tagAccesses         1650195923                       # Number of tag accesses (Count)
system.cpu.dcache.tags.dataAccesses        1650195923                       # Number of data accesses (Count)
system.cpu.dcache.tags.power_state.pwrStateResidencyTicks::UNDEFINED 292089501000                       # Cumulative time (in ticks) in various power states (Tick)
system.cpu.decode.idleCycles                184741782                       # Number of cycles decode is idle (Cycle)
system.cpu.decode.blockedCycles             109734011                       # Number of cycles decode is blocked (Cycle)
system.cpu.decode.runCycles                 249728083                       # Number of cycles decode is running (Cycle)
system.cpu.decode.unblockCycles              31112432                       # Number of cycles decode is unblocking (Cycle)
system.cpu.decode.squashCycles                8787724                       # Number of cycles decode is squashing (Cycle)
system.cpu.decode.branchResolved             84235984                       # Number of times decode resolved a branch (Count)
system.cpu.decode.branchMispred               3343281                       # Number of times decode detected a branch misprediction (Count)
system.cpu.decode.decodedInsts             1646501070                       # Number of instructions handled by decode (Count)
system.cpu.decode.squashedInsts               6688893                       # Number of squashed instructions handled by decode (Count)
system.cpu.fetch.icacheStallCycles          237604043                       # Number of cycles fetch is stalled on an Icache miss (Cycle)
system.cpu.fetch.insts                     1553742779                       # Number of instructions fetch has processed (Count)
system.cpu.fetch.branches                   307504537                       # Number of branches that fetch encountered (Count)
system.cpu.fetch.predictedBranches          123433826                       # Number of branches that fetch has predicted taken (Count)
system.cpu.fetch.cycles                     334369719                       # Number of cycles fetch has run and was not squashing or blocked (Cycle)
system.cpu.fetch.squashCycles                24260406                       # Number of cycles fetch has spent squashing (Cycle)
system.cpu.fetch.miscStallCycles                   10                       # Number of cycles fetch has spent waiting on interrupts, or bad addresses, or out of MSHRs (Cycle)
system.cpu.fetch.pendingTrapStallCycles            23                       # Number of stall cycles due to pending traps (Cycle)
system.cpu.fetch.icacheWaitRetryStallCycles           34                       # Number of stall cycles due to full MSHR (Cycle)
system.cpu.fetch.cacheLines                 231667383                       # Number of cache lines fetched (Count)
system.cpu.fetch.icacheSquashes               6215052                       # Number of outstanding Icache misses that were squashed (Count)
system.cpu.fetch.nisnDist::samples          584104032                       # Number of instructions fetched each cycle (Total) (Count)
system.cpu.fetch.nisnDist::mean              3.017302                       # Number of instructions fetched each cycle (Total) (Count)
system.cpu.fetch.nisnDist::stdev             3.367653                       # Number of instructions fetched each cycle (Total) (Count)
system.cpu.fetch.nisnDist::underflows               0      0.00%      0.00% # Number of instructions fetched each cycle (Total) (Count)
system.cpu.fetch.nisnDist::0                265634647     45.48%     45.48% # Number of instructions fetched each cycle (Total) (Count)
system.cpu.fetch.nisnDist::1                 29052245      4.97%     50.45% # Number of instructions fetched each cycle (Total) (Count)
system.cpu.fetch.nisnDist::2                 41329656      7.08%     57.53% # Number of instructions fetched each cycle (Total) (Count)
system.cpu.fetch.nisnDist::3                 11755031      2.01%     59.54% # Number of instructions fetched each cycle (Total) (Count)
system.cpu.fetch.nisnDist::4                 36786799      6.30%     65.84% # Number of instructions fetched each cycle (Total) (Count)
system.cpu.fetch.nisnDist::5                 29741867      5.09%     70.93% # Number of instructions fetched each cycle (Total) (Count)
system.cpu.fetch.nisnDist::6                 12529950      2.15%     73.07% # Number of instructions fetched each cycle (Total) (Count)
system.cpu.fetch.nisnDist::7                 13785578      2.36%     75.43% # Number of instructions fetched each cycle (Total) (Count)
system.cpu.fetch.nisnDist::8                143488259     24.57%    100.00% # Number of instructions fetched each cycle (Total) (Count)
system.cpu.fetch.nisnDist::overflows                0      0.00%    100.00% # Number of instructions fetched each cycle (Total) (Count)
system.cpu.fetch.nisnDist::min_value                0                       # Number of instructions fetched each cycle (Total) (Count)
system.cpu.fetch.nisnDist::max_value                8                       # Number of instructions fetched each cycle (Total) (Count)
system.cpu.fetch.nisnDist::total            584104032                       # Number of instructions fetched each cycle (Total) (Count)
system.cpu.fetch.branchRate                  0.526388                       # Number of branch fetches per cycle (Ratio)
system.cpu.fetch.rate                        2.659703                       # Number of inst fetches per cycle ((Count/Cycle))
system.cpu.icache.demandHits::cpu.inst      231665355                       # number of demand (read+write) hits (Count)
system.cpu.icache.demandHits::total         231665355                       # number of demand (read+write) hits (Count)
system.cpu.icache.overallHits::cpu.inst     231665355                       # number of overall hits (Count)
system.cpu.icache.overallHits::total        231665355                       # number of overall hits (Count)
system.cpu.icache.demandMisses::cpu.inst         2028                       # number of demand (read+write) misses (Count)
system.cpu.icache.demandMisses::total            2028                       # number of demand (read+write) misses (Count)
system.cpu.icache.overallMisses::cpu.inst         2028                       # number of overall misses (Count)
system.cpu.icache.overallMisses::total           2028                       # number of overall misses (Count)
system.cpu.icache.demandMissLatency::cpu.inst    116159000                       # number of demand (read+write) miss ticks (Tick)
system.cpu.icache.demandMissLatency::total    116159000                       # number of demand (read+write) miss ticks (Tick)
system.cpu.icache.overallMissLatency::cpu.inst    116159000                       # number of overall miss ticks (Tick)
system.cpu.icache.overallMissLatency::total    116159000                       # number of overall miss ticks (Tick)
system.cpu.icache.demandAccesses::cpu.inst    231667383                       # number of demand (read+write) accesses (Count)
system.cpu.icache.demandAccesses::total     231667383                       # number of demand (read+write) accesses (Count)
system.cpu.icache.overallAccesses::cpu.inst    231667383                       # number of overall (read+write) accesses (Count)
system.cpu.icache.overallAccesses::total    231667383                       # number of overall (read+write) accesses (Count)
system.cpu.icache.demandMissRate::cpu.inst     0.000009                       # miss rate for demand accesses (Ratio)
system.cpu.icache.demandMissRate::total      0.000009                       # miss rate for demand accesses (Ratio)
system.cpu.icache.overallMissRate::cpu.inst     0.000009                       # miss rate for overall accesses (Ratio)
system.cpu.icache.overallMissRate::total     0.000009                       # miss rate for overall accesses (Ratio)
system.cpu.icache.demandAvgMissLatency::cpu.inst 57277.613412                       # average overall miss latency in ticks ((Tick/Count))
system.cpu.icache.demandAvgMissLatency::total 57277.613412                       # average overall miss latency in ticks ((Tick/Count))
system.cpu.icache.overallAvgMissLatency::cpu.inst 57277.613412                       # average overall miss latency ((Tick/Count))
system.cpu.icache.overallAvgMissLatency::total 57277.613412                       # average overall miss latency ((Tick/Count))
system.cpu.icache.blockedCycles::no_mshrs          995                       # number of cycles access was blocked (Cycle)
system.cpu.icache.blockedCycles::no_targets            0                       # number of cycles access was blocked (Cycle)
system.cpu.icache.blockedCauses::no_mshrs           18                       # number of times access was blocked (Count)
system.cpu.icache.blockedCauses::no_targets            0                       # number of times access was blocked (Count)
system.cpu.icache.avgBlocked::no_mshrs      55.277778                       # average number of cycles each access was blocked ((Cycle/Count))
system.cpu.icache.avgBlocked::no_targets          nan                       # average number of cycles each access was blocked ((Cycle/Count))
system.cpu.icache.demandMshrHits::cpu.inst          490                       # number of demand (read+write) MSHR hits (Count)
system.cpu.icache.demandMshrHits::total           490                       # number of demand (read+write) MSHR hits (Count)
system.cpu.icache.overallMshrHits::cpu.inst          490                       # number of overall MSHR hits (Count)
system.cpu.icache.overallMshrHits::total          490                       # number of overall MSHR hits (Count)
system.cpu.icache.demandMshrMisses::cpu.inst         1538                       # number of demand (read+write) MSHR misses (Count)
system.cpu.icache.demandMshrMisses::total         1538                       # number of demand (read+write) MSHR misses (Count)
system.cpu.icache.overallMshrMisses::cpu.inst         1538                       # number of overall MSHR misses (Count)
system.cpu.icache.overallMshrMisses::total         1538                       # number of overall MSHR misses (Count)
system.cpu.icache.demandMshrMissLatency::cpu.inst     90679000                       # number of demand (read+write) MSHR miss ticks (Tick)
system.cpu.icache.demandMshrMissLatency::total     90679000                       # number of demand (read+write) MSHR miss ticks (Tick)
system.cpu.icache.overallMshrMissLatency::cpu.inst     90679000                       # number of overall MSHR miss ticks (Tick)
system.cpu.icache.overallMshrMissLatency::total     90679000                       # number of overall MSHR miss ticks (Tick)
system.cpu.icache.demandMshrMissRate::cpu.inst     0.000007                       # mshr miss ratio for demand accesses (Ratio)
system.cpu.icache.demandMshrMissRate::total     0.000007                       # mshr miss ratio for demand accesses (Ratio)
system.cpu.icache.overallMshrMissRate::cpu.inst     0.000007                       # mshr miss ratio for overall accesses (Ratio)
system.cpu.icache.overallMshrMissRate::total     0.000007                       # mshr miss ratio for overall accesses (Ratio)
system.cpu.icache.demandAvgMshrMissLatency::cpu.inst 58959.037711                       # average overall mshr miss latency ((Tick/Count))
system.cpu.icache.demandAvgMshrMissLatency::total 58959.037711                       # average overall mshr miss latency ((Tick/Count))
system.cpu.icache.overallAvgMshrMissLatency::cpu.inst 58959.037711                       # average overall mshr miss latency ((Tick/Count))
system.cpu.icache.overallAvgMshrMissLatency::total 58959.037711                       # average overall mshr miss latency ((Tick/Count))
system.cpu.icache.replacements                   1024                       # number of replacements (Count)
system.cpu.icache.ReadReq.hits::cpu.inst    231665355                       # number of ReadReq hits (Count)
system.cpu.icache.ReadReq.hits::total       231665355                       # number of ReadReq hits (Count)
system.cpu.icache.ReadReq.misses::cpu.inst         2028                       # number of ReadReq misses (Count)
system.cpu.icache.ReadReq.misses::total          2028                       # number of ReadReq misses (Count)
system.cpu.icache.ReadReq.missLatency::cpu.inst    116159000                       # number of ReadReq miss ticks (Tick)
system.cpu.icache.ReadReq.missLatency::total    116159000                       # number of ReadReq miss ticks (Tick)
system.cpu.icache.ReadReq.accesses::cpu.inst    231667383                       # number of ReadReq accesses(hits+misses) (Count)
system.cpu.icache.ReadReq.accesses::total    231667383                       # number of ReadReq accesses(hits+misses) (Count)
system.cpu.icache.ReadReq.missRate::cpu.inst     0.000009                       # miss rate for ReadReq accesses (Ratio)
system.cpu.icache.ReadReq.missRate::total     0.000009                       # miss rate for ReadReq accesses (Ratio)
system.cpu.icache.ReadReq.avgMissLatency::cpu.inst 57277.613412                       # average ReadReq miss latency ((Tick/Count))
system.cpu.icache.ReadReq.avgMissLatency::total 57277.613412                       # average ReadReq miss latency ((Tick/Count))
system.cpu.icache.ReadReq.mshrHits::cpu.inst          490                       # number of ReadReq MSHR hits (Count)
system.cpu.icache.ReadReq.mshrHits::total          490                       # number of ReadReq MSHR hits (Count)
system.cpu.icache.ReadReq.mshrMisses::cpu.inst         1538                       # number of ReadReq MSHR misses (Count)
system.cpu.icache.ReadReq.mshrMisses::total         1538                       # number of ReadReq MSHR misses (Count)
system.cpu.icache.ReadReq.mshrMissLatency::cpu.inst     90679000                       # number of ReadReq MSHR miss ticks (Tick)
system.cpu.icache.ReadReq.mshrMissLatency::total     90679000                       # number of ReadReq MSHR miss ticks (Tick)
system.cpu.icache.ReadReq.mshrMissRate::cpu.inst     0.000007                       # mshr miss rate for ReadReq accesses (Ratio)
system.cpu.icache.ReadReq.mshrMissRate::total     0.000007                       # mshr miss rate for ReadReq accesses (Ratio)
system.cpu.icache.ReadReq.avgMshrMissLatency::cpu.inst 58959.037711                       # average ReadReq mshr miss latency ((Tick/Count))
system.cpu.icache.ReadReq.avgMshrMissLatency::total 58959.037711                       # average ReadReq mshr miss latency ((Tick/Count))
system.cpu.icache.power_state.pwrStateResidencyTicks::UNDEFINED 292089501000                       # Cumulative time (in ticks) in various power states (Tick)
system.cpu.icache.tags.tagsInUse           511.810553                       # Average ticks per tags in use ((Tick/Count))
system.cpu.icache.tags.totalRefs            231666893                       # Total number of references to valid blocks. (Count)
system.cpu.icache.tags.sampledRefs               1538                       # Sample count of references to valid blocks. (Count)
system.cpu.icache.tags.avgRefs           150628.669051                       # Average number of references to valid blocks. ((Count/Count))
system.cpu.icache.tags.warmupTick               81500                       # The tick when the warmup percentage was hit. (Tick)
system.cpu.icache.tags.occupancies::cpu.inst   511.810553                       # Average occupied blocks per tick, per requestor ((Count/Tick))
system.cpu.icache.tags.avgOccs::cpu.inst     0.999630                       # Average percentage of cache occupancy ((Ratio/Tick))
system.cpu.icache.tags.avgOccs::total        0.999630                       # Average percentage of cache occupancy ((Ratio/Tick))
system.cpu.icache.tags.occupanciesTaskId::1024          512                       # Occupied blocks per task id (Count)
system.cpu.icache.tags.ageTaskId_1024::4          512                       # Occupied blocks per task id, per block age (Count)
system.cpu.icache.tags.ratioOccsTaskId::1024            1                       # Ratio of occupied blocks and all blocks, per task id (Ratio)
system.cpu.icache.tags.tagAccesses          926671070                       # Number of tag accesses (Count)
system.cpu.icache.tags.dataAccesses         926671070                       # Number of data accesses (Count)
system.cpu.icache.tags.power_state.pwrStateResidencyTicks::UNDEFINED 292089501000                       # Cumulative time (in ticks) in various power states (Tick)
system.cpu.iew.idleCycles                           0                       # Number of cycles IEW is idle (Cycle)
system.cpu.iew.squashCycles                   8787724                       # Number of cycles IEW is squashing (Cycle)
system.cpu.iew.blockCycles                   48927005                       # Number of cycles IEW is blocking (Cycle)
system.cpu.iew.unblockCycles                  4894327                       # Number of cycles IEW is unblocking (Cycle)
system.cpu.iew.dispatchedInsts             1561665872                       # Number of instructions dispatched to IQ (Count)
system.cpu.iew.dispSquashedInsts                 7388                       # Number of squashed instructions skipped by dispatch (Count)
system.cpu.iew.dispLoadInsts                358031046                       # Number of dispatched load instructions (Count)
system.cpu.iew.dispStoreInsts               191212985                       # Number of dispatched store instructions (Count)
system.cpu.iew.dispNonSpecInsts                  1503                       # Number of dispatched non-speculative instructions (Count)
system.cpu.iew.iqFullEvents                      1398                       # Number of times the IQ has become full, causing a stall (Count)
system.cpu.iew.lsqFullEvents                  4840710                       # Number of times the LSQ has become full, causing a stall (Count)
system.cpu.iew.memOrderViolationEvents          17862                       # Number of memory order violations (Count)
system.cpu.iew.predictedTakenIncorrect        2925756                       # Number of branches that were predicted taken incorrectly (Count)
system.cpu.iew.predictedNotTakenIncorrect      7932042                       # Number of branches that were predicted not taken incorrectly (Count)
system.cpu.iew.branchMispredicts             10857798                       # Number of branch mispredicts detected at execute (Count)
system.cpu.iew.instsToCommit               1308475962                       # Cumulative count of insts sent to commit (Count)
system.cpu.iew.writebackCount              1302156166                       # Cumulative count of insts written-back (Count)
system.cpu.iew.producerInst                 789347850                       # Number of instructions producing a value (Count)
system.cpu.iew.consumerInst                1374056968                       # Number of instructions consuming a value (Count)
system.cpu.iew.wbRate                        2.229036                       # Insts written-back per cycle ((Count/Cycle))
system.cpu.iew.wbFanout                      0.574465                       # Average fanout of values written-back ((Count/Count))
system.cpu.lsq0.forwLoads                    33887987                       # Number of loads that had data forwarded from stores (Count)
system.cpu.lsq0.squashedLoads               109047929                       # Number of loads squashed (Count)
system.cpu.lsq0.ignoredResponses              1670346                       # Number of memory responses ignored because the instruction is squashed (Count)
system.cpu.lsq0.memOrderViolation               17862                       # Number of memory ordering violations (Count)
system.cpu.lsq0.squashedStores               42667070                       # Number of stores squashed (Count)
system.cpu.lsq0.rescheduledLoads             21719328                       # Number of loads that were rescheduled (Count)
system.cpu.lsq0.blockedByCache                     74                       # Number of times an access to memory failed due to the cache being blocked (Count)
system.cpu.lsq0.loadToUse::samples          248983107                       # Distribution of cycle latency between the first time a load is issued and its completion (Unspecified)
system.cpu.lsq0.loadToUse::mean              3.543571                       # Distribution of cycle latency between the first time a load is issued and its completion (Unspecified)
system.cpu.lsq0.loadToUse::stdev             5.289463                       # Distribution of cycle latency between the first time a load is issued and its completion (Unspecified)
system.cpu.lsq0.loadToUse::0-9              244974732     98.39%     98.39% # Distribution of cycle latency between the first time a load is issued and its completion (Unspecified)
system.cpu.lsq0.loadToUse::10-19              2112595      0.85%     99.24% # Distribution of cycle latency between the first time a load is issued and its completion (Unspecified)
system.cpu.lsq0.loadToUse::20-29              1734150      0.70%     99.94% # Distribution of cycle latency between the first time a load is issued and its completion (Unspecified)
system.cpu.lsq0.loadToUse::30-39                 1369      0.00%     99.94% # Distribution of cycle latency between the first time a load is issued and its completion (Unspecified)
system.cpu.lsq0.loadToUse::40-49                 4478      0.00%     99.94% # Distribution of cycle latency between the first time a load is issued and its completion (Unspecified)
system.cpu.lsq0.loadToUse::50-59                  825      0.00%     99.94% # Distribution of cycle latency between the first time a load is issued and its completion (Unspecified)
system.cpu.lsq0.loadToUse::60-69                10024      0.00%     99.94% # Distribution of cycle latency between the first time a load is issued and its completion (Unspecified)
system.cpu.lsq0.loadToUse::70-79                24408      0.01%     99.95% # Distribution of cycle latency between the first time a load is issued and its completion (Unspecified)
system.cpu.lsq0.loadToUse::80-89                14579      0.01%     99.96% # Distribution of cycle latency between the first time a load is issued and its completion (Unspecified)
system.cpu.lsq0.loadToUse::90-99                 4591      0.00%     99.96% # Distribution of cycle latency between the first time a load is issued and its completion (Unspecified)
system.cpu.lsq0.loadToUse::100-109               1051      0.00%     99.96% # Distribution of cycle latency between the first time a load is issued and its completion (Unspecified)
system.cpu.lsq0.loadToUse::110-119               2828      0.00%     99.96% # Distribution of cycle latency between the first time a load is issued and its completion (Unspecified)
system.cpu.lsq0.loadToUse::120-129              19313      0.01%     99.97% # Distribution of cycle latency between the first time a load is issued and its completion (Unspecified)
system.cpu.lsq0.loadToUse::130-139              24833      0.01%     99.98% # Distribution of cycle latency between the first time a load is issued and its completion (Unspecified)
system.cpu.lsq0.loadToUse::140-149                190      0.00%     99.98% # Distribution of cycle latency between the first time a load is issued and its completion (Unspecified)
system.cpu.lsq0.loadToUse::150-159                902      0.00%     99.98% # Distribution of cycle latency between the first time a load is issued and its completion (Unspecified)
system.cpu.lsq0.loadToUse::160-169                401      0.00%     99.98% # Distribution of cycle latency between the first time a load is issued and its completion (Unspecified)
system.cpu.lsq0.loadToUse::170-179                 50      0.00%     99.98% # Distribution of cycle latency between the first time a load is issued and its completion (Unspecified)
system.cpu.lsq0.loadToUse::180-189              19023      0.01%     99.99% # Distribution of cycle latency between the first time a load is issued and its completion (Unspecified)
system.cpu.lsq0.loadToUse::190-199              15437      0.01%     99.99% # Distribution of cycle latency between the first time a load is issued and its completion (Unspecified)
system.cpu.lsq0.loadToUse::200-209                204      0.00%     99.99% # Distribution of cycle latency between the first time a load is issued and its completion (Unspecified)
[...]
system.mem_ctrl.dram.perBankRdBursts::8          4801                       # Per bank write bursts (Count)
system.mem_ctrl.dram.perBankRdBursts::9          4796                       # Per bank write bursts (Count)
system.mem_ctrl.dram.perBankRdBursts::10         4794                       # Per bank write bursts (Count)
system.mem_ctrl.dram.perBankRdBursts::11         4755                       # Per bank write bursts (Count)
system.mem_ctrl.dram.perBankRdBursts::12         4753                       # Per bank write bursts (Count)
system.mem_ctrl.dram.perBankRdBursts::13         4744                       # Per bank write bursts (Count)
system.mem_ctrl.dram.perBankRdBursts::14         4759                       # Per bank write bursts (Count)
system.mem_ctrl.dram.perBankRdBursts::15         4801                       # Per bank write bursts (Count)
system.mem_ctrl.dram.perBankRdBursts::16         4766                       # Per bank write bursts (Count)
system.mem_ctrl.dram.perBankRdBursts::17         4769                       # Per bank write bursts (Count)
system.mem_ctrl.dram.perBankRdBursts::18         4804                       # Per bank write bursts (Count)
system.mem_ctrl.dram.perBankRdBursts::19         4748                       # Per bank write bursts (Count)
system.mem_ctrl.dram.perBankRdBursts::20         4753                       # Per bank write bursts (Count)
system.mem_ctrl.dram.perBankRdBursts::21         4804                       # Per bank write bursts (Count)
system.mem_ctrl.dram.perBankRdBursts::22         4768                       # Per bank write bursts (Count)
system.mem_ctrl.dram.perBankRdBursts::23         4754                       # Per bank write bursts (Count)
system.mem_ctrl.dram.perBankRdBursts::24         4740                       # Per bank write bursts (Count)
system.mem_ctrl.dram.perBankRdBursts::25         4817                       # Per bank write bursts (Count)
system.mem_ctrl.dram.perBankRdBursts::26         4855                       # Per bank write bursts (Count)
system.mem_ctrl.dram.perBankRdBursts::27         4757                       # Per bank write bursts (Count)
system.mem_ctrl.dram.perBankRdBursts::28         4718                       # Per bank write bursts (Count)
system.mem_ctrl.dram.perBankRdBursts::29         4691                       # Per bank write bursts (Count)
system.mem_ctrl.dram.perBankRdBursts::30         4734                       # Per bank write bursts (Count)
system.mem_ctrl.dram.perBankRdBursts::31         4729                       # Per bank write bursts (Count)
system.mem_ctrl.dram.perBankWrBursts::0          2889                       # Per bank write bursts (Count)
system.mem_ctrl.dram.perBankWrBursts::1          2855                       # Per bank write bursts (Count)
system.mem_ctrl.dram.perBankWrBursts::2          2945                       # Per bank write bursts (Count)
system.mem_ctrl.dram.perBankWrBursts::3          2818                       # Per bank write bursts (Count)
system.mem_ctrl.dram.perBankWrBursts::4          2819                       # Per bank write bursts (Count)
system.mem_ctrl.dram.perBankWrBursts::5          2944                       # Per bank write bursts (Count)
system.mem_ctrl.dram.perBankWrBursts::6          2944                       # Per bank write bursts (Count)
system.mem_ctrl.dram.perBankWrBursts::7          2944                       # Per bank write bursts (Count)
system.mem_ctrl.dram.perBankWrBursts::8          2944                       # Per bank write bursts (Count)
system.mem_ctrl.dram.perBankWrBursts::9          2944                       # Per bank write bursts (Count)
system.mem_ctrl.dram.perBankWrBursts::10         2944                       # Per bank write bursts (Count)
system.mem_ctrl.dram.perBankWrBursts::11         2944                       # Per bank write bursts (Count)
system.mem_ctrl.dram.perBankWrBursts::12         2944                       # Per bank write bursts (Count)
system.mem_ctrl.dram.perBankWrBursts::13         2944                       # Per bank write bursts (Count)
system.mem_ctrl.dram.perBankWrBursts::14         2944                       # Per bank write bursts (Count)
system.mem_ctrl.dram.perBankWrBursts::15         2944                       # Per bank write bursts (Count)
system.mem_ctrl.dram.perBankWrBursts::16         2944                       # Per bank write bursts (Count)
system.mem_ctrl.dram.perBankWrBursts::17         2944                       # Per bank write bursts (Count)
system.mem_ctrl.dram.perBankWrBursts::18         2944                       # Per bank write bursts (Count)
system.mem_ctrl.dram.perBankWrBursts::19         2941                       # Per bank write bursts (Count)
system.mem_ctrl.dram.perBankWrBursts::20         2944                       # Per bank write bursts (Count)
system.mem_ctrl.dram.perBankWrBursts::21         2944                       # Per bank write bursts (Count)
system.mem_ctrl.dram.perBankWrBursts::22         2944                       # Per bank write bursts (Count)
system.mem_ctrl.dram.perBankWrBursts::23         2944                       # Per bank write bursts (Count)
system.mem_ctrl.dram.perBankWrBursts::24         2944                       # Per bank write bursts (Count)
system.mem_ctrl.dram.perBankWrBursts::25         2944                       # Per bank write bursts (Count)
system.mem_ctrl.dram.perBankWrBursts::26         2970                       # Per bank write bursts (Count)
system.mem_ctrl.dram.perBankWrBursts::27         2948                       # Per bank write bursts (Count)
system.mem_ctrl.dram.perBankWrBursts::28         2845                       # Per bank write bursts (Count)
system.mem_ctrl.dram.perBankWrBursts::29         2858                       # Per bank write bursts (Count)
system.mem_ctrl.dram.perBankWrBursts::30         2891                       # Per bank write bursts (Count)
system.mem_ctrl.dram.perBankWrBursts::31         2829                       # Per bank write bursts (Count)
system.mem_ctrl.dram.totQLat               3653327030                       # Total ticks spent queuing (Tick)
system.mem_ctrl.dram.totBusLat              508999652                       # Total ticks spent in databus transfers (Tick)
system.mem_ctrl.dram.totMemAccLat          6325422442                       # Total ticks spent from burst creation until serviced by the DRAM (Tick)
system.mem_ctrl.dram.avgQLat                 23915.31                       # Average queueing delay per DRAM burst ((Tick/Count))
system.mem_ctrl.dram.avgBusLat                3332.00                       # Average bus latency per DRAM burst ((Tick/Count))
system.mem_ctrl.dram.avgMemAccLat            41407.31                       # Average memory access latency per DRAM burst ((Tick/Count))
system.mem_ctrl.dram.readRowHits                92409                       # Number of row buffer hits during reads (Count)
system.mem_ctrl.dram.writeRowHits               83090                       # Number of row buffer hits during writes (Count)
system.mem_ctrl.dram.readRowHitRate             60.49                       # Row buffer hit rate for reads (Ratio)
system.mem_ctrl.dram.writeRowHitRate            88.88                       # Row buffer hit rate for writes (Ratio)
system.mem_ctrl.dram.bytesPerActivate::samples        70749                       # Bytes accessed per row activation (Byte)
system.mem_ctrl.dram.bytesPerActivate::mean   222.757523                       # Bytes accessed per row activation (Byte)
system.mem_ctrl.dram.bytesPerActivate::gmean   138.414263                       # Bytes accessed per row activation (Byte)
system.mem_ctrl.dram.bytesPerActivate::stdev   266.232606                       # Bytes accessed per row activation (Byte)
system.mem_ctrl.dram.bytesPerActivate::0-127        30701     43.39%     43.39% # Bytes accessed per row activation (Byte)
system.mem_ctrl.dram.bytesPerActivate::128-255        25526     36.08%     79.47% # Bytes accessed per row activation (Byte)
system.mem_ctrl.dram.bytesPerActivate::256-383         1023      1.45%     80.92% # Bytes accessed per row activation (Byte)
system.mem_ctrl.dram.bytesPerActivate::384-511         2442      3.45%     84.37% # Bytes accessed per row activation (Byte)
system.mem_ctrl.dram.bytesPerActivate::512-639         3761      5.32%     89.69% # Bytes accessed per row activation (Byte)
system.mem_ctrl.dram.bytesPerActivate::640-767         1785      2.52%     92.21% # Bytes accessed per row activation (Byte)
system.mem_ctrl.dram.bytesPerActivate::768-895          583      0.82%     93.03% # Bytes accessed per row activation (Byte)
system.mem_ctrl.dram.bytesPerActivate::896-1023          927      1.31%     94.34% # Bytes accessed per row activation (Byte)
system.mem_ctrl.dram.bytesPerActivate::1024-1151         4001      5.66%    100.00% # Bytes accessed per row activation (Byte)
system.mem_ctrl.dram.bytesPerActivate::total        70749                       # Bytes accessed per row activation (Byte)
system.mem_ctrl.dram.bytesRead                9776704                       # Total bytes read (Byte)
system.mem_ctrl.dram.bytesWritten             5983232                       # Total bytes written (Byte)
system.mem_ctrl.dram.avgRdBW                33.471604                       # Average DRAM read bandwidth in MiBytes/s ((Byte/Second))
system.mem_ctrl.dram.avgWrBW                20.484242                       # Average DRAM write bandwidth in MiBytes/s ((Byte/Second))
system.mem_ctrl.dram.peakBW                  19207.00                       # Theoretical peak bandwidth in MiByte/s ((Byte/Second))
system.mem_ctrl.dram.busUtil                     0.28                       # Data bus utilization in percentage (Ratio)
system.mem_ctrl.dram.busUtilRead                 0.17                       # Data bus utilization in percentage for reads (Ratio)
system.mem_ctrl.dram.busUtilWrite                0.11                       # Data bus utilization in percentage for writes (Ratio)
system.mem_ctrl.dram.pageHitRate                71.27                       # Row buffer hit rate, read and write combined (Ratio)
system.mem_ctrl.dram.power_state.pwrStateResidencyTicks::UNDEFINED 292089501000                       # Cumulative time (in ticks) in various power states (Tick)
system.mem_ctrl.dram.rank0.actEnergy     108847563.552018                       # Energy for activate commands per rank (pJ) (Joule)
system.mem_ctrl.dram.rank0.preEnergy     144711440.260791                       # Energy for precharge commands per rank (pJ) (Joule)
system.mem_ctrl.dram.rank0.readEnergy    322010376.307160                       # Energy for read commands per rank (pJ) (Joule)
system.mem_ctrl.dram.rank0.writeEnergy   175559348.160002                       # Energy for write commands per rank (pJ) (Joule)
system.mem_ctrl.dram.rank0.refreshEnergy 51972441684.382011                       # Energy for refresh commands per rank (pJ) (Joule)
system.mem_ctrl.dram.rank0.actBackEnergy 88330280305.369888                       # Energy for active background per rank (pJ) (Joule)
system.mem_ctrl.dram.rank0.preBackEnergy 122806432746.015915                       # Energy for precharge background per rank (pJ) (Joule)
system.mem_ctrl.dram.rank0.actPowerDownEnergy            0                       # Energy for active power-down per rank (pJ) (Joule)
system.mem_ctrl.dram.rank0.prePowerDownEnergy            0                       # Energy for precharge power-down per rank (pJ) (Joule)
system.mem_ctrl.dram.rank0.selfRefreshEnergy            0                       # Energy for self refresh per rank (pJ) (Joule)
system.mem_ctrl.dram.rank0.totalEnergy   263860283464.054413                       # Total energy per rank (pJ) (Joule)
system.mem_ctrl.dram.rank0.averagePower    903.354220                       # Core power per rank (mW) (Watt)
system.mem_ctrl.dram.rank0.totalIdleTime            0                       # Total Idle time Per DRAM Rank (Tick)
system.mem_ctrl.dram.rank0.pwrStateTime::IDLE 187304873990                       # Time in different power states (Tick)
system.mem_ctrl.dram.rank0.pwrStateTime::REF  13130250000                       # Time in different power states (Tick)
system.mem_ctrl.dram.rank0.pwrStateTime::SREF            0                       # Time in different power states (Tick)
system.mem_ctrl.dram.rank0.pwrStateTime::PRE_PDN            0                       # Time in different power states (Tick)
system.mem_ctrl.dram.rank0.pwrStateTime::ACT  91654377010                       # Time in different power states (Tick)
system.mem_ctrl.dram.rank0.pwrStateTime::ACT_PDN            0                       # Time in different power states (Tick)
system.mem_ctrl.dram.rank1.actEnergy     111804140.448017                       # Energy for activate commands per rank (pJ) (Joule)
system.mem_ctrl.dram.rank1.preEnergy     148638024.998379                       # Energy for precharge commands per rank (pJ) (Joule)
system.mem_ctrl.dram.rank1.readEnergy    320550784.377559                       # Energy for read commands per rank (pJ) (Joule)
system.mem_ctrl.dram.rank1.writeEnergy   175814925.888002                       # Energy for write commands per rank (pJ) (Joule)
system.mem_ctrl.dram.rank1.refreshEnergy 51972441684.382011                       # Energy for refresh commands per rank (pJ) (Joule)
system.mem_ctrl.dram.rank1.actBackEnergy 92696421621.982300                       # Energy for active background per rank (pJ) (Joule)
system.mem_ctrl.dram.rank1.preBackEnergy 119451657497.091187                       # Energy for precharge background per rank (pJ) (Joule)
system.mem_ctrl.dram.rank1.actPowerDownEnergy            0                       # Energy for active power-down per rank (pJ) (Joule)
system.mem_ctrl.dram.rank1.prePowerDownEnergy            0                       # Energy for precharge power-down per rank (pJ) (Joule)
system.mem_ctrl.dram.rank1.selfRefreshEnergy            0                       # Energy for self refresh per rank (pJ) (Joule)
system.mem_ctrl.dram.rank1.totalEnergy   264877328679.173340                       # Total energy per rank (pJ) (Joule)
system.mem_ctrl.dram.rank1.averagePower    906.836185                       # Core power per rank (mW) (Watt)
system.mem_ctrl.dram.rank1.totalIdleTime            0                       # Total Idle time Per DRAM Rank (Tick)
system.mem_ctrl.dram.rank1.pwrStateTime::IDLE 182154318340                       # Time in different power states (Tick)
system.mem_ctrl.dram.rank1.pwrStateTime::REF  13130250000                       # Time in different power states (Tick)
system.mem_ctrl.dram.rank1.pwrStateTime::SREF            0                       # Time in different power states (Tick)
system.mem_ctrl.dram.rank1.pwrStateTime::PRE_PDN            0                       # Time in different power states (Tick)
system.mem_ctrl.dram.rank1.pwrStateTime::ACT  96804932660                       # Time in different power states (Tick)
system.mem_ctrl.dram.rank1.pwrStateTime::ACT_PDN            0                       # Time in different power states (Tick)
system.mem_ctrl.power_state.pwrStateResidencyTicks::UNDEFINED 292089501000                       # Cumulative time (in ticks) in various power states (Tick)
system.membus.transDist::ReadResp               34894                       # Transaction distribution (Count)
system.membus.transDist::WritebackDirty         93541                       # Transaction distribution (Count)
system.membus.transDist::CleanEvict             25992                       # Transaction distribution (Count)
system.membus.transDist::ReadExReq             117923                       # Transaction distribution (Count)
system.membus.transDist::ReadExResp            117923                       # Transaction distribution (Count)
system.membus.transDist::ReadSharedReq          34894                       # Transaction distribution (Count)
system.membus.transDist::InvalidateReq              1                       # Transaction distribution (Count)
system.membus.pktCount_system.l2cache.mem_side_port::system.mem_ctrl.port       425168                       # Packet count per connected requestor and responder (Count)
system.membus.pktCount::total                  425168                       # Packet count per connected requestor and responder (Count)
system.membus.pktSize_system.l2cache.mem_side_port::system.mem_ctrl.port     15766912                       # Cumulative packet size per connected requestor and responder (Byte)
system.membus.pktSize::total                 15766912                       # Cumulative packet size per connected requestor and responder (Byte)
system.membus.snoops                                0                       # Total snoops (Count)
system.membus.snoopTraffic                          0                       # Total snoop traffic (Byte)
system.membus.snoopFanout::samples             152818                       # Request fanout histogram (Count)
system.membus.snoopFanout::mean                     0                       # Request fanout histogram (Count)
system.membus.snoopFanout::stdev                    0                       # Request fanout histogram (Count)
system.membus.snoopFanout::underflows               0      0.00%      0.00% # Request fanout histogram (Count)
system.membus.snoopFanout::0                   152818    100.00%    100.00% # Request fanout histogram (Count)
system.membus.snoopFanout::1                        0      0.00%    100.00% # Request fanout histogram (Count)
system.membus.snoopFanout::overflows                0      0.00%    100.00% # Request fanout histogram (Count)
system.membus.snoopFanout::min_value                0                       # Request fanout histogram (Count)
system.membus.snoopFanout::max_value                0                       # Request fanout histogram (Count)
system.membus.snoopFanout::total               152818                       # Request fanout histogram (Count)
system.membus.power_state.pwrStateResidencyTicks::UNDEFINED 292089501000                       # Cumulative time (in ticks) in various power states (Tick)
system.membus.reqLayer0.occupancy           323257500                       # Layer occupancy (ticks) (Tick)
system.membus.reqLayer0.utilization               0.0                       # Layer utilization (Ratio)
system.membus.respLayer0.occupancy          403833534                       # Layer occupancy (ticks) (Tick)
system.membus.respLayer0.utilization              0.0                       # Layer utilization (Ratio)
system.membus.snoop_filter.totRequests         272351                       # Total number of requests made to the snoop filter. (Count)
system.membus.snoop_filter.hitSingleRequests       119543                       # Number of requests hitting in the snoop filter with a single holder of the requested data. (Count)
system.membus.snoop_filter.hitMultiRequests            0                       # Number of requests hitting in the snoop filter with multiple (>1) holders of the requested data. (Count)
system.membus.snoop_filter.totSnoops                0                       # Total number of snoops made to the snoop filter. (Count)
system.membus.snoop_filter.hitSingleSnoops            0                       # Number of snoops hitting in the snoop filter with a single holder of the requested data. (Count)
system.membus.snoop_filter.hitMultiSnoops            0                       # Number of snoops hitting in the snoop filter with multiple (>1) holders of the requested data. (Count)
system.workload.inst.arm                            0                       # number of arm instructions executed (Count)
system.workload.inst.quiesce                        0                       # number of quiesce instructions executed (Count)

---------- End Simulation Statistics   ----------
