
---------- Begin Simulation Statistics ----------
simSeconds                                   0.231533                       # Number of seconds simulated (Second)
simTicks                                 231532788000                       # Number of ticks simulated (Tick)
finalTick                                231532788000                       # Number of ticks from beginning of simulation (restored from checkpoints and never reset) (Tick)
simFreq                                  1000000000000                       # The number of ticks per simulated second ((Tick/Second))
hostSeconds                                   4035.79                       # Real time elapsed on the host (Second)
hostTickRate                                 57369888                       # The number of ticks simulated per host second (ticks/s) ((Tick/Second))
hostMemory                                    2294812                       # Number of bytes of host memory used (Byte)
simInsts                                   1000000000                       # Number of instructions simulated (Count)
simOps                                     1132163591                       # Number of ops (including micro ops) simulated (Count)
hostInstRate                                   247783                       # Simulator instruction rate (inst/s) ((Count/Second))
hostOpRate                                     280531                       # Simulator op (including micro ops) rate (op/s) ((Count/Second))
system.clk_domain.clock                           500                       # Clock period in ticks (Tick)
system.clk_domain.voltage_domain.voltage            1                       # Voltage in Volts (Volt)
system.cpu.numCycles                        463065577                       # Number of cpu cycles simulated (Cycle)
system.cpu.numWorkItemsStarted                      0                       # Number of work items this cpu started (Count)
system.cpu.numWorkItemsCompleted                    0                       # Number of work items this cpu completed (Count)
system.cpu.instsAdded                      1235107392                       # Number of instructions added to the IQ (excludes non-spec) (Count)
system.cpu.nonSpecInstsAdded                     1929                       # Number of non-speculative instructions added to the IQ (Count)
system.cpu.instsIssued                     1194910546                       # Number of instructions issued (Count)
system.cpu.squashedInstsIssued                   5004                       # Number of squashed instructions issued (Count)
system.cpu.squashedInstsExamined            102945683                       # Number of squashed instructions iterated over during squash; mainly for profiling (Count)
system.cpu.squashedOperandsExamined         281026247                       # Number of squashed operands that are examined and possibly removed from graph (Count)
system.cpu.squashedNonSpecRemoved                  77                       # Number of squashed non-spec instructions that were removed (Count)
system.cpu.numIssuedDist::samples           462988630                       # Number of insts issued each cycle (Count)
system.cpu.numIssuedDist::mean               2.580864                       # Number of insts issued each cycle (Count)
system.cpu.numIssuedDist::stdev              1.956116                       # Number of insts issued each cycle (Count)
system.cpu.numIssuedDist::underflows                0      0.00%      0.00% # Number of insts issued each cycle (Count)
system.cpu.numIssuedDist::0                  66080055     14.27%     14.27% # Number of insts issued each cycle (Count)
system.cpu.numIssuedDist::1                  95860603     20.70%     34.98% # Number of insts issued each cycle (Count)
system.cpu.numIssuedDist::2                  89880362     19.41%     54.39% # Number of insts issued each cycle (Count)
system.cpu.numIssuedDist::3                  72057386     15.56%     69.95% # Number of insts issued each cycle (Count)
system.cpu.numIssuedDist::4                  58342657     12.60%     82.56% # Number of insts issued each cycle (Count)
system.cpu.numIssuedDist::5                  42622100      9.21%     91.76% # Number of insts issued each cycle (Count)
system.cpu.numIssuedDist::6                  19574561      4.23%     95.99% # Number of insts issued each cycle (Count)
system.cpu.numIssuedDist::7                   9378681      2.03%     98.01% # Number of insts issued each cycle (Count)
system.cpu.numIssuedDist::8                   9192225      1.99%    100.00% # Number of insts issued each cycle (Count)
system.cpu.numIssuedDist::overflows                 0      0.00%    100.00% # Number of insts issued each cycle (Count)
system.cpu.numIssuedDist::min_value                 0                       # Number of insts issued each cycle (Count)
system.cpu.numIssuedDist::max_value                 8                       # Number of insts issued each cycle (Count)
system.cpu.numIssuedDist::total             462988630                       # Number of insts issued each cycle (Count)
system.cpu.statFuBusy::No_OpClass                   0      0.00%      0.00% # attempts to use FU when none available (Count)
system.cpu.statFuBusy::IntAlu                 2977582     16.79%     16.79% # attempts to use FU when none available (Count)
system.cpu.statFuBusy::IntMult                      0      0.00%     16.79% # attempts to use FU when none available (Count)
system.cpu.statFuBusy::IntDiv                       0      0.00%     16.79% # attempts to use FU when none available (Count)
system.cpu.statFuBusy::FloatAdd                     0      0.00%     16.79% # attempts to use FU when none available (Count)
system.cpu.statFuBusy::FloatCmp                     0      0.00%     16.79% # attempts to use FU when none available (Count)
system.cpu.statFuBusy::FloatCvt                     0      0.00%     16.79% # attempts to use FU when none available (Count)
system.cpu.statFuBusy::FloatMult                    0      0.00%     16.79% # attempts to use FU when none available (Count)
system.cpu.statFuBusy::FloatMultAcc                 0      0.00%     16.79% # attempts to use FU when none available (Count)
system.cpu.statFuBusy::FloatDiv                     0      0.00%     16.79% # attempts to use FU when none available (Count)
system.cpu.statFuBusy::FloatMisc                    0      0.00%     16.79% # attempts to use FU when none available (Count)
system.cpu.statFuBusy::FloatSqrt                    0      0.00%     16.79% # attempts to use FU when none available (Count)
system.cpu.statFuBusy::SimdAdd                      0      0.00%     16.79% # attempts to use FU when none available (Count)
system.cpu.statFuBusy::SimdAddAcc                   0      0.00%     16.79% # attempts to use FU when none available (Count)
system.cpu.statFuBusy::SimdAlu                      0      0.00%     16.79% # attempts to use FU when none available (Count)
system.cpu.statFuBusy::SimdCmp                      0      0.00%     16.79% # attempts to use FU when none available (Count)
system.cpu.statFuBusy::SimdCvt                      0      0.00%     16.79% # attempts to use FU when none available (Count)
system.cpu.statFuBusy::SimdMisc                     0      0.00%     16.79% # attempts to use FU when none available (Count)
system.cpu.statFuBusy::SimdMult                     0      0.00%     16.79% # attempts to use FU when none available (Count)
system.cpu.statFuBusy::SimdMultAcc                  0      0.00%     16.79% # attempts to use FU when none available (Count)
system.cpu.statFuBusy::SimdShift                    0      0.00%     16.79% # attempts to use FU when none available (Count)
system.cpu.statFuBusy::SimdShiftAcc                 0      0.00%     16.79% # attempts to use FU when none available (Count)
system.cpu.statFuBusy::SimdDiv                      0      0.00%     16.79% # attempts to use FU when none available (Count)
system.cpu.statFuBusy::SimdSqrt                     0      0.00%     16.79% # attempts to use FU when none available (Count)
system.cpu.statFuBusy::SimdFloatAdd                 0      0.00%     16.79% # attempts to use FU when none available (Count)
system.cpu.statFuBusy::SimdFloatAlu                 0      0.00%     16.79% # attempts to use FU when none available (Count)
system.cpu.statFuBusy::SimdFloatCmp                 0      0.00%     16.79% # attempts to use FU when none available (Count)
system.cpu.statFuBusy::SimdFloatCvt                 0      0.00%     16.79% # attempts to use FU when none available (Count)
system.cpu.statFuBusy::SimdFloatDiv                 0      0.00%     16.79% # attempts to use FU when none available (Count)
system.cpu.statFuBusy::SimdFloatMisc                0      0.00%     16.79% # attempts to use FU when none available (Count)
system.cpu.statFuBusy::SimdFloatMult                0      0.00%     16.79% # attempts to use FU when none available (Count)
system.cpu.statFuBusy::SimdFloatMultAcc             0      0.00%     16.79% # attempts to use FU when none available (Count)
system.cpu.statFuBusy::SimdFloatSqrt                0      0.00%     16.79% # attempts to use FU when none available (Count)
system.cpu.statFuBusy::SimdReduceAdd                0      0.00%     16.79% # attempts to use FU when none available (Count)
system.cpu.statFuBusy::SimdReduceAlu                0      0.00%     16.79% # attempts to use FU when none available (Count)
system.cpu.statFuBusy::SimdReduceCmp                0      0.00%     16.79% # attempts to use FU when none available (Count)
system.cpu.statFuBusy::SimdFloatReduceAdd            0      0.00%     16.79% # attempts to use FU when none available (Count)
system.cpu.statFuBusy::SimdFloatReduceCmp            0      0.00%     16.79% # attempts to use FU when none available (Count)
system.cpu.statFuBusy::SimdAes                      0      0.00%     16.79% # attempts to use FU when none available (Count)
system.cpu.statFuBusy::SimdAesMix                   0      0.00%     16.79% # attempts to use FU when none available (Count)
system.cpu.statFuBusy::SimdSha1Hash                 0      0.00%     16.79% # attempts to use FU when none available (Count)
system.cpu.statFuBusy::SimdSha1Hash2                0      0.00%     16.79% # attempts to use FU when none available (Count)
system.cpu.statFuBusy::SimdSha256Hash               0      0.00%     16.79% # attempts to use FU when none available (Count)
system.cpu.statFuBusy::SimdSha256Hash2              0      0.00%     16.79% # attempts to use FU when none available (Count)
system.cpu.statFuBusy::SimdShaSigma2                0      0.00%     16.79% # attempts to use FU when none available (Count)
system.cpu.statFuBusy::SimdShaSigma3                0      0.00%     16.79% # attempts to use FU when none available (Count)
system.cpu.statFuBusy::SimdPredAlu                  0      0.00%     16.79% # attempts to use FU when none available (Count)
system.cpu.statFuBusy::MemRead                9246637     52.15%     68.95% # attempts to use FU when none available (Count)
system.cpu.statFuBusy::MemWrite               5505351     31.05%    100.00% # attempts to use FU when none available (Count)
system.cpu.statFuBusy::FloatMemRead                 0      0.00%    100.00% # attempts to use FU when none available (Count)
system.cpu.statFuBusy::FloatMemWrite                0      0.00%    100.00% # attempts to use FU when none available (Count)
system.cpu.statFuBusy::IprAccess                    0      0.00%    100.00% # attempts to use FU when none available (Count)
system.cpu.statFuBusy::InstPrefetch                 0      0.00%    100.00% # attempts to use FU when none available (Count)
system.cpu.statIssuedInstType_0::No_OpClass            5      0.00%      0.00% # Number of instructions issued per FU type, per thread (Count)
system.cpu.statIssuedInstType_0::IntAlu     759403120     63.55%     63.55% # Number of instructions issued per FU type, per thread (Count)
system.cpu.statIssuedInstType_0::IntMult      6287383      0.53%     64.08% # Number of instructions issued per FU type, per thread (Count)
system.cpu.statIssuedInstType_0::IntDiv             0      0.00%     64.08% # Number of instructions issued per FU type, per thread (Count)
system.cpu.statIssuedInstType_0::FloatAdd            0      0.00%     64.08% # Number of instructions issued per FU type, per thread (Count)
system.cpu.statIssuedInstType_0::FloatCmp            0      0.00%     64.08% # Number of instructions issued per FU type, per thread (Count)
system.cpu.statIssuedInstType_0::FloatCvt            0      0.00%     64.08% # Number of instructions issued per FU type, per thread (Count)
system.cpu.statIssuedInstType_0::FloatMult            0      0.00%     64.08% # Number of instructions issued per FU type, per thread (Count)
system.cpu.statIssuedInstType_0::FloatMultAcc            0      0.00%     64.08% # Number of instructions issued per FU type, per thread (Count)
system.cpu.statIssuedInstType_0::FloatDiv            0      0.00%     64.08% # Number of instructions issued per FU type, per thread (Count)
system.cpu.statIssuedInstType_0::FloatMisc            0      0.00%     64.08% # Number of instructions issued per FU type, per thread (Count)
system.cpu.statIssuedInstType_0::FloatSqrt            0      0.00%     64.08% # Number of instructions issued per FU type, per thread (Count)
system.cpu.statIssuedInstType_0::SimdAdd            0      0.00%     64.08% # Number of instructions issued per FU type, per thread (Count)
system.cpu.statIssuedInstType_0::SimdAddAcc            0      0.00%     64.08% # Number of instructions issued per FU type, per thread (Count)
system.cpu.statIssuedInstType_0::SimdAlu            0      0.00%     64.08% # Number of instructions issued per FU type, per thread (Count)
system.cpu.statIssuedInstType_0::SimdCmp            0      0.00%     64.08% # Number of instructions issued per FU type, per thread (Count)
system.cpu.statIssuedInstType_0::SimdCvt            0      0.00%     64.08% # Number of instructions issued per FU type, per thread (Count)
system.cpu.statIssuedInstType_0::SimdMisc            0      0.00%     64.08% # Number of instructions issued per FU type, per thread (Count)
system.cpu.statIssuedInstType_0::SimdMult            0      0.00%     64.08% # Number of instructions issued per FU type, per thread (Count)
system.cpu.statIssuedInstType_0::SimdMultAcc            0      0.00%     64.08% # Number of instructions issued per FU type, per thread (Count)
system.cpu.statIssuedInstType_0::SimdShift            0      0.00%     64.08% # Number of instructions issued per FU type, per thread (Count)
system.cpu.statIssuedInstType_0::SimdShiftAcc            0      0.00%     64.08% # Number of instructions issued per FU type, per thread (Count)
system.cpu.statIssuedInstType_0::SimdDiv            0      0.00%     64.08% # Number of instructions issued per FU type, per thread (Count)
system.cpu.statIssuedInstType_0::SimdSqrt            0      0.00%     64.08% # Number of instructions issued per FU type, per thread (Count)
system.cpu.statIssuedInstType_0::SimdFloatAdd            0      0.00%     64.08% # Number of instructions issued per FU type, per thread (Count)
system.cpu.statIssuedInstType_0::SimdFloatAlu            0      0.00%     64.08% # Number of instructions issued per FU type, per thread (Count)
system.cpu.statIssuedInstType_0::SimdFloatCmp            0      0.00%     64.08% # Number of instructions issued per FU type, per thread (Count)
system.cpu.statIssuedInstType_0::SimdFloatCvt            0      0.00%     64.08% # Number of instructions issued per FU type, per thread (Count)
system.cpu.statIssuedInstType_0::SimdFloatDiv            0      0.00%     64.08% # Number of instructions issued per FU type, per thread (Count)
system.cpu.statIssuedInstType_0::SimdFloatMisc            0      0.00%     64.08% # Number of instructions issued per FU type, per thread (Count)
system.cpu.statIssuedInstType_0::SimdFloatMult            0      0.00%     64.08% # Number of instructions issued per FU type, per thread (Count)
system.cpu.statIssuedInstType_0::SimdFloatMultAcc            0      0.00%     64.08% # Number of instructions issued per FU type, per thread (Count)
system.cpu.statIssuedInstType_0::SimdFloatSqrt            0      0.00%     64.08% # Number of instructions issued per FU type, per thread (Count)
system.cpu.statIssuedInstType_0::SimdReduceAdd            0      0.00%     64.08% # Number of instructions issued per FU type, per thread (Count)
system.cpu.statIssuedInstType_0::SimdReduceAlu            0      0.00%     64.08% # Number of instructions issued per FU type, per thread (Count)
system.cpu.statIssuedInstType_0::SimdReduceCmp            0      0.00%     64.08% # Number of instructions issued per FU type, per thread (Count)
system.cpu.statIssuedInstType_0::SimdFloatReduceAdd            0      0.00%     64.08% # Number of instructions issued per FU type, per thread (Count)
system.cpu.statIssuedInstType_0::SimdFloatReduceCmp            0      0.00%     64.08% # Number of instructions issued per FU type, per thread (Count)
system.cpu.statIssuedInstType_0::SimdAes            0      0.00%     64.08% # Number of instructions issued per FU type, per thread (Count)
system.cpu.statIssuedInstType_0::SimdAesMix            0      0.00%     64.08% # Number of instructions issued per FU type, per thread (Count)
system.cpu.statIssuedInstType_0::SimdSha1Hash            0      0.00%     64.08% # Number of instructions issued per FU type, per thread (Count)
system.cpu.statIssuedInstType_0::SimdSha1Hash2            0      0.00%     64.08% # Number of instructions issued per FU type, per thread (Count)
system.cpu.statIssuedInstType_0::SimdSha256Hash            0      0.00%     64.08% # Number of instructions issued per FU type, per thread (Count)
system.cpu.statIssuedInstType_0::SimdSha256Hash2            0      0.00%     64.08% # Number of instructions issued per FU type, per thread (Count)
system.cpu.statIssuedInstType_0::SimdShaSigma2            0      0.00%     64.08% # Number of instructions issued per FU type, per thread (Count)
system.cpu.statIssuedInstType_0::SimdShaSigma3            0      0.00%     64.08% # Number of instructions issued per FU type, per thread (Count)
system.cpu.statIssuedInstType_0::SimdPredAlu            0      0.00%     64.08% # Number of instructions issued per FU type, per thread (Count)
system.cpu.statIssuedInstType_0::MemRead    276845420     23.17%     87.25% # Number of instructions issued per FU type, per thread (Count)
system.cpu.statIssuedInstType_0::MemWrite    152374618     12.75%    100.00% # Number of instructions issued per FU type, per thread (Count)
system.cpu.statIssuedInstType_0::FloatMemRead            0      0.00%    100.00% # Number of instructions issued per FU type, per thread (Count)
system.cpu.statIssuedInstType_0::FloatMemWrite            0      0.00%    100.00% # Number of instructions issued per FU type, per thread (Count)
system.cpu.statIssuedInstType_0::IprAccess            0      0.00%    100.00% # Number of instructions issued per FU type, per thread (Count)
system.cpu.statIssuedInstType_0::InstPrefetch            0      0.00%    100.00% # Number of instructions issued per FU type, per thread (Count)
system.cpu.statIssuedInstType_0::total     1194910546                       # Number of instructions issued per FU type, per thread (Count)
system.cpu.issueRate                         2.580435                       # Inst issue rate ((Count/Cycle))
system.cpu.fuBusy                            17729570                       # FU busy when requested (Count)
system.cpu.fuBusyRate                        0.014838                       # FU busy rate (busy events/executed inst) ((Count/Count))
system.cpu.intInstQueueReads               2870544296                       # Number of integer instruction queue reads (Count)
system.cpu.intInstQueueWrites              1338070148                       # Number of integer instruction queue writes (Count)
system.cpu.intInstQueueWakeupAccesses      1168282663                       # Number of integer instruction queue wakeup accesses (Count)
system.cpu.fpInstQueueReads                         0                       # Number of floating instruction queue reads (Count)
system.cpu.fpInstQueueWrites                        0                       # Number of floating instruction queue writes (Count)
system.cpu.fpInstQueueWakeupAccesses                0                       # Number of floating instruction queue wakeup accesses (Count)
system.cpu.vecInstQueueReads                        0                       # Number of vector instruction queue reads (Count)
system.cpu.vecInstQueueWrites                       0                       # Number of vector instruction queue writes (Count)
system.cpu.vecInstQueueWakeupAccesses               0                       # Number of vector instruction queue wakeup accesses (Count)
system.cpu.intAluAccesses                  1212640111                       # Number of integer alu accesses (Count)
system.cpu.fpAluAccesses                            0                       # Number of floating point alu accesses (Count)
system.cpu.vecAluAccesses                           0                       # Number of vector alu accesses (Count)
system.cpu.numInsts                        1190737076                       # Number of executed instructions (Count)
system.cpu.numLoadInsts                     275620440                       # Number of load instructions executed (Count)
system.cpu.numSquashedInsts                   4173470                       # Number of squashed instructions skipped in execute (Count)
system.cpu.numSwp                                   0                       # Number of swp insts executed (Count)
system.cpu.numNop                                   0                       # Number of nop insts executed (Count)
system.cpu.numRefs                          426735423                       # Number of memory reference insts executed (Count)
system.cpu.numBranches                      194713095                       # Number of branches executed (Count)
system.cpu.numStoreInsts                    151114983                       # Number of stores executed (Count)
system.cpu.numRate                           2.571422                       # Inst execution rate ((Count/Cycle))
system.cpu.timesIdled                             859                       # Number of times that the entire CPU went into an idle state and unscheduled itself (Count)
system.cpu.idleCycles                           76947                       # Total number of cycles that the CPU has spent unscheduled due to idling (Cycle)
system.cpu.committedInsts                  1000000000                       # Number of Instructions Simulated (Count)
system.cpu.committedOps                    1132163591                       # Number of Ops (including micro ops) Simulated (Count)
system.cpu.cpi                               0.463066                       # CPI: Cycles Per Instruction ((Cycle/Count))
system.cpu.totalCpi                          0.463066                       # CPI: Total CPI of All Threads ((Cycle/Count))
system.cpu.ipc                               2.159521                       # IPC: Instructions Per Cycle ((Count/Cycle))
system.cpu.totalIpc                          2.159521                       # IPC: Total IPC of All Threads ((Count/Cycle))
system.cpu.intRegfileReads                 1357291726                       # Number of integer regfile reads (Count)
system.cpu.intRegfileWrites                 689712960                       # Number of integer regfile writes (Count)
system.cpu.vecRegfileReads                         16                       # number of vector regfile reads (Count)
system.cpu.ccRegfileReads                  4324260245                       # number of cc regfile reads (Count)
system.cpu.ccRegfileWrites                  606194564                       # number of cc regfile writes (Count)
system.cpu.miscRegfileReads                 401800614                       # number of misc regfile reads (Count)
system.cpu.miscRegfileWrites                     1709                       # number of misc regfile writes (Count)
system.cpu.MemDepUnit__0.insertedLoads      268200249                       # Number of loads inserted to the mem dependence unit. (Count)
system.cpu.MemDepUnit__0.insertedStores     154885409                       # Number of stores inserted to the mem dependence unit. (Count)
system.cpu.MemDepUnit__0.conflictingLoads     39401149                       # Number of conflicting loads. (Count)
system.cpu.MemDepUnit__0.conflictingStores     16601690                       # Number of conflicting stores. (Count)
system.cpu.MemDepUnit__1.insertedLoads              0                       # Number of loads inserted to the mem dependence unit. (Count)
system.cpu.MemDepUnit__1.insertedStores             0                       # Number of stores inserted to the mem dependence unit. (Count)
system.cpu.MemDepUnit__1.conflictingLoads            0                       # Number of conflicting loads. (Count)
system.cpu.MemDepUnit__1.conflictingStores            0                       # Number of conflicting stores. (Count)
system.cpu.MemDepUnit__2.insertedLoads              0                       # Number of loads inserted to the mem dependence unit. (Count)
system.cpu.MemDepUnit__2.insertedStores             0                       # Number of stores inserted to the mem dependence unit. (Count)
system.cpu.MemDepUnit__2.conflictingLoads            0                       # Number of conflicting loads. (Count)
system.cpu.MemDepUnit__2.conflictingStores            0                       # Number of conflicting stores. (Count)
system.cpu.MemDepUnit__3.insertedLoads              0                       # Number of loads inserted to the mem dependence unit. (Count)
system.cpu.MemDepUnit__3.insertedStores             0                       # Number of stores inserted to the mem dependence unit. (Count)
system.cpu.MemDepUnit__3.conflictingLoads            0                       # Number of conflicting loads. (Count)
system.cpu.MemDepUnit__3.conflictingStores            0                       # Number of conflicting stores. (Count)
system.cpu.branchPred.lookups               234844235                       # Number of BP lookups (Count)
system.cpu.branchPred.condPredicted         176326087                       # Number of conditional branches predicted (Count)
system.cpu.branchPred.condIncorrect           6265106                       # Number of conditional branches incorrect (Count)
system.cpu.branchPred.BTBLookups             73778076                       # Number of BTB lookups (Count)
system.cpu.branchPred.BTBHits                64584093                       # Number of BTB hits (Count)
system.cpu.branchPred.BTBHitRatio            0.875383                       # BTB Hit Ratio (Ratio)
system.cpu.branchPred.RASUsed                25480422                       # Number of times the RAS was used to get a target. (Count)
system.cpu.branchPred.RASIncorrect               1084                       # Number of incorrect RAS predictions. (Count)
system.cpu.branchPred.indirectLookups         2509908                       # Number of indirect predictor lookups. (Count)
system.cpu.branchPred.indirectHits            2508431                       # Number of indirect target hits. (Count)
system.cpu.branchPred.indirectMisses             1477                       # Number of indirect misses. (Count)
system.cpu.branchPred.indirectMispredicted          341                       # Number of mispredicted indirect branches. (Count)
system.cpu.commit.commitSquashedInsts       102842109                       # The number of squashed insts skipped by commit (Count)
system.cpu.commit.commitNonSpecStalls            1852                       # The number of times commit has been forced to stall to communicate backwards (Count)
system.cpu.commit.branchMispredicts           2922626                       # The number of times a branch was mispredicted (Count)
system.cpu.commit.numCommittedDist::samples    448342703                       # Number of insts commited each cycle (Count)
system.cpu.commit.numCommittedDist::mean     2.525219                       # Number of insts commited each cycle (Count)
system.cpu.commit.numCommittedDist::stdev     2.813569                       # Number of insts commited each cycle (Count)
system.cpu.commit.numCommittedDist::underflows            0      0.00%      0.00% # Number of insts commited each cycle (Count)
system.cpu.commit.numCommittedDist::0       114078399     25.44%     25.44% # Number of insts commited each cycle (Count)
system.cpu.commit.numCommittedDist::1       127226790     28.38%     53.82% # Number of insts commited each cycle (Count)
system.cpu.commit.numCommittedDist::2        72277632     16.12%     69.94% # Number of insts commited each cycle (Count)
system.cpu.commit.numCommittedDist::3        15052550      3.36%     73.30% # Number of insts commited each cycle (Count)
system.cpu.commit.numCommittedDist::4        20100680      4.48%     77.78% # Number of insts commited each cycle (Count)
system.cpu.commit.numCommittedDist::5        13085576      2.92%     80.70% # Number of insts commited each cycle (Count)
system.cpu.commit.numCommittedDist::6         5920066      1.32%     82.02% # Number of insts commited each cycle (Count)
system.cpu.commit.numCommittedDist::7        10935189      2.44%     84.46% # Number of insts commited each cycle (Count)
system.cpu.commit.numCommittedDist::8        69665821     15.54%    100.00% # Number of insts commited each cycle (Count)
system.cpu.commit.numCommittedDist::overflows            0      0.00%    100.00% # Number of insts commited each cycle (Count)
system.cpu.commit.numCommittedDist::min_value            0                       # Number of insts commited each cycle (Count)
system.cpu.commit.numCommittedDist::max_value            8                       # Number of insts commited each cycle (Count)
system.cpu.commit.numCommittedDist::total    448342703                       # Number of insts commited each cycle (Count)
system.cpu.commit.instsCommitted           1000000000                       # Number of instructions committed (Count)
system.cpu.commit.opsCommitted             1132163591                       # Number of ops (including micro ops) committed (Count)
system.cpu.commit.memRefs                   397529001                       # Number of memory references committed (Count)
system.cpu.commit.loads                     248983110                       # Number of loads committed (Count)
system.cpu.commit.amos                              0                       # Number of atomic instructions committed (Count)
system.cpu.commit.membars                         431                       # Number of memory barriers committed (Count)
system.cpu.commit.branches                  188421440                       # Number of branches committed (Count)
system.cpu.commit.vectorInstructions                0                       # Number of committed Vector instructions. (Count)
system.cpu.commit.floating                          0                       # Number of committed floating point instructions. (Count)
system.cpu.commit.integer                   982994693                       # Number of committed integer instructions. (Count)
system.cpu.commit.functionCalls              18373461                       # Number of function calls committed. (Count)
system.cpu.commit.committedInstType_0::No_OpClass            0      0.00%      0.00% # Class of committed instruction (Count)
system.cpu.commit.committedInstType_0::IntAlu    728754673     64.37%     64.37% # Class of committed instruction (Count)
system.cpu.commit.committedInstType_0::IntMult      5879917      0.52%     64.89% # Class of committed instruction (Count)
system.cpu.commit.committedInstType_0::IntDiv            0      0.00%     64.89% # Class of committed instruction (Count)
system.cpu.commit.committedInstType_0::FloatAdd            0      0.00%     64.89% # Class of committed instruction (Count)
system.cpu.commit.committedInstType_0::FloatCmp            0      0.00%     64.89% # Class of committed instruction (Count)
system.cpu.commit.committedInstType_0::FloatCvt            0      0.00%     64.89% # Class of committed instruction (Count)
system.cpu.commit.committedInstType_0::FloatMult            0      0.00%     64.89% # Class of committed instruction (Count)
system.cpu.commit.committedInstType_0::FloatMultAcc            0      0.00%     64.89% # Class of committed instruction (Count)
system.cpu.commit.committedInstType_0::FloatDiv            0      0.00%     64.89% # Class of committed instruction (Count)
system.cpu.commit.committedInstType_0::FloatMisc            0      0.00%     64.89% # Class of committed instruction (Count)
system.cpu.commit.committedInstType_0::FloatSqrt            0      0.00%     64.89% # Class of committed instruction (Count)
system.cpu.commit.committedInstType_0::SimdAdd            0      0.00%     64.89% # Class of committed instruction (Count)
system.cpu.commit.committedInstType_0::SimdAddAcc            0      0.00%     64.89% # Class of committed instruction (Count)
system.cpu.commit.committedInstType_0::SimdAlu            0      0.00%     64.89% # Class of committed instruction (Count)
system.cpu.commit.committedInstType_0::SimdCmp            0      0.00%     64.89% # Class of committed instruction (Count)
system.cpu.commit.committedInstType_0::SimdCvt            0      0.00%     64.89% # Class of committed instruction (Count)
system.cpu.commit.committedInstType_0::SimdMisc            0      0.00%     64.89% # Class of committed instruction (Count)
system.cpu.commit.committedInstType_0::SimdMult            0      0.00%     64.89% # Class of committed instruction (Count)
system.cpu.commit.committedInstType_0::SimdMultAcc            0      0.00%     64.89% # Class of committed instruction (Count)
system.cpu.commit.committedInstType_0::SimdShift            0      0.00%     64.89% # Class of committed instruction (Count)
system.cpu.commit.committedInstType_0::SimdShiftAcc            0      0.00%     64.89% # Class of committed instruction (Count)
system.cpu.commit.committedInstType_0::SimdDiv            0      0.00%     64.89% # Class of committed instruction (Count)
system.cpu.commit.committedInstType_0::SimdSqrt            0      0.00%     64.89% # Class of committed instruction (Count)
system.cpu.commit.committedInstType_0::SimdFloatAdd            0      0.00%     64.89% # Class of committed instruction (Count)
system.cpu.commit.committedInstType_0::SimdFloatAlu            0      0.00%     64.89% # Class of committed instruction (Count)
system.cpu.commit.committedInstType_0::SimdFloatCmp            0      0.00%     64.89% # Class of committed instruction (Count)
system.cpu.commit.committedInstType_0::SimdFloatCvt            0      0.00%     64.89% # Class of committed instruction (Count)
system.cpu.commit.committedInstType_0::SimdFloatDiv            0      0.00%     64.89% # Class of committed instruction (Count)
system.cpu.commit.committedInstType_0::SimdFloatMisc            0      0.00%     64.89% # Class of committed instruction (Count)
system.cpu.commit.committedInstType_0::SimdFloatMult            0      0.00%     64.89% # Class of committed instruction (Count)
system.cpu.commit.committedInstType_0::SimdFloatMultAcc            0      0.00%     64.89% # Class of committed instruction (Count)
system.cpu.commit.committedInstType_0::SimdFloatSqrt            0      0.00%     64.89% # Class of committed instruction (Count)
system.cpu.commit.committedInstType_0::SimdReduceAdd            0      0.00%     64.89% # Class of committed instruction (Count)
system.cpu.commit.committedInstType_0::SimdReduceAlu            0      0.00%     64.89% # Class of committed instruction (Count)
system.cpu.commit.committedInstType_0::SimdReduceCmp            0      0.00%     64.89% # Class of committed instruction (Count)
system.cpu.commit.committedInstType_0::SimdFloatReduceAdd            0      0.00%     64.89% # Class of committed instruction (Count)
system.cpu.commit.committedInstType_0::SimdFloatReduceCmp            0      0.00%     64.89% # Class of committed instruction (Count)
system.cpu.commit.committedInstType_0::SimdAes            0      0.00%     64.89% # Class of committed instruction (Count)
system.cpu.commit.committedInstType_0::SimdAesMix            0      0.00%     64.89% # Class of committed instruction (Count)
system.cpu.commit.committedInstType_0::SimdSha1Hash            0      0.00%     64.89% # Class of committed instruction (Count)
system.cpu.commit.committedInstType_0::SimdSha1Hash2            0      0.00%     64.89% # Class of committed instruction (Count)
system.cpu.commit.committedInstType_0::SimdSha256Hash            0      0.00%     64.89% # Class of committed instruction (Count)
system.cpu.commit.committedInstType_0::SimdSha256Hash2            0      0.00%     64.89% # Class of committed instruction (Count)
system.cpu.commit.committedInstType_0::SimdShaSigma2            0      0.00%     64.89% # Class of committed instruction (Count)
system.cpu.commit.committedInstType_0::SimdShaSigma3            0      0.00%     64.89% # Class of committed instruction (Count)
system.cpu.commit.committedInstType_0::SimdPredAlu            0      0.00%     64.89% # Class of committed instruction (Count)
system.cpu.commit.committedInstType_0::MemRead    248983110     21.99%     86.88% # Class of committed instruction (Count)
system.cpu.commit.committedInstType_0::MemWrite    148545891     13.12%    100.00% # Class of committed instruction (Count)
system.cpu.commit.committedInstType_0::FloatMemRead            0      0.00%    100.00% # Class of committed instruction (Count)
system.cpu.commit.committedInstType_0::FloatMemWrite            0      0.00%    100.00% # Class of committed instruction (Count)
system.cpu.commit.committedInstType_0::IprAccess            0      0.00%    100.00% # Class of committed instruction (Count)
system.cpu.commit.committedInstType_0::InstPrefetch            0      0.00%    100.00% # Class of committed instruction (Count)
system.cpu.commit.committedInstType_0::total   1132163591                       # Class of committed instruction (Count)
system.cpu.commit.commitEligibleSamples      69665821                       # number cycles where commit BW limit reached (Cycle)
system.cpu.dcache.demandHits::cpu.data      365439994                       # number of demand (read+write) hits (Count)
system.cpu.dcache.demandHits::total         365439994                       # number of demand (read+write) hits (Count)
system.cpu.dcache.overallHits::cpu.data     365439994                       # number of overall hits (Count)
system.cpu.dcache.overallHits::total        365439994                       # number of overall hits (Count)
system.cpu.dcache.demandMisses::cpu.data      1422910                       # number of demand (read+write) misses (Count)
system.cpu.dcache.demandMisses::total         1422910                       # number of demand (read+write) misses (Count)
system.cpu.dcache.overallMisses::cpu.data      1422910                       # number of overall misses (Count)
system.cpu.dcache.overallMisses::total        1422910                       # number of overall misses (Count)
system.cpu.dcache.demandMissLatency::cpu.data 112762921977                       # number of demand (read+write) miss ticks (Tick)
system.cpu.dcache.demandMissLatency::total 112762921977                       # number of demand (read+write) miss ticks (Tick)
system.cpu.dcache.overallMissLatency::cpu.data 112762921977                       # number of overall miss ticks (Tick)
system.cpu.dcache.overallMissLatency::total 112762921977                       # number of overall miss ticks (Tick)
system.cpu.dcache.demandAccesses::cpu.data    366862904                       # number of demand (read+write) accesses (Count)
system.cpu.dcache.demandAccesses::total     366862904                       # number of demand (read+write) accesses (Count)
system.cpu.dcache.overallAccesses::cpu.data    366862904                       # number of overall (read+write) accesses (Count)
system.cpu.dcache.overallAccesses::total    366862904                       # number of overall (read+write) accesses (Count)
system.cpu.dcache.demandMissRate::cpu.data     0.003879                       # miss rate for demand accesses (Ratio)
system.cpu.dcache.demandMissRate::total      0.003879                       # miss rate for demand accesses (Ratio)
system.cpu.dcache.overallMissRate::cpu.data     0.003879                       # miss rate for overall accesses (Ratio)
system.cpu.dcache.overallMissRate::total     0.003879                       # miss rate for overall accesses (Ratio)
system.cpu.dcache.demandAvgMissLatency::cpu.data 79248.105626                       # average overall miss latency in ticks ((Tick/Count))
system.cpu.dcache.demandAvgMissLatency::total 79248.105626                       # average overall miss latency in ticks ((Tick/Count))
system.cpu.dcache.overallAvgMissLatency::cpu.data 79248.105626                       # average overall miss latency ((Tick/Count))
system.cpu.dcache.overallAvgMissLatency::total 79248.105626                       # average overall miss latency ((Tick/Count))
system.cpu.dcache.blockedCycles::no_mshrs         2920                       # number of cycles access was blocked (Cycle)
system.cpu.dcache.blockedCycles::no_targets           88                       # number of cycles access was blocked (Cycle)
system.cpu.dcache.blockedCauses::no_mshrs          105                       # number of times access was blocked (Count)
system.cpu.dcache.blockedCauses::no_targets            2                       # number of times access was blocked (Count)
system.cpu.dcache.avgBlocked::no_mshrs      27.809524                       # average number of cycles each access was blocked ((Cycle/Count))
system.cpu.dcache.avgBlocked::no_targets           44                       # average number of cycles each access was blocked ((Cycle/Count))
system.cpu.dcache.writebacks::writebacks       150019                       # number of writebacks (Count)
system.cpu.dcache.writebacks::total            150019                       # number of writebacks (Count)
system.cpu.dcache.demandMshrHits::cpu.data      1237856                       # number of demand (read+write) MSHR hits (Count)
system.cpu.dcache.demandMshrHits::total       1237856                       # number of demand (read+write) MSHR hits (Count)
system.cpu.dcache.overallMshrHits::cpu.data      1237856                       # number of overall MSHR hits (Count)
system.cpu.dcache.overallMshrHits::total      1237856                       # number of overall MSHR hits (Count)
system.cpu.dcache.demandMshrMisses::cpu.data       185054                       # number of demand (read+write) MSHR misses (Count)
system.cpu.dcache.demandMshrMisses::total       185054                       # number of demand (read+write) MSHR misses (Count)
system.cpu.dcache.overallMshrMisses::cpu.data       185054                       # number of overall MSHR misses (Count)
system.cpu.dcache.overallMshrMisses::total       185054                       # number of overall MSHR misses (Count)
system.cpu.dcache.demandMshrMissLatency::cpu.data  14054386496                       # number of demand (read+write) MSHR miss ticks (Tick)
system.cpu.dcache.demandMshrMissLatency::total  14054386496                       # number of demand (read+write) MSHR miss ticks (Tick)
system.cpu.dcache.overallMshrMissLatency::cpu.data  14054386496                       # number of overall MSHR miss ticks (Tick)
system.cpu.dcache.overallMshrMissLatency::total  14054386496                       # number of overall MSHR miss ticks (Tick)
system.cpu.dcache.demandMshrMissRate::cpu.data     0.000504                       # mshr miss ratio for demand accesses (Ratio)
system.cpu.dcache.demandMshrMissRate::total     0.000504                       # mshr miss ratio for demand accesses (Ratio)
system.cpu.dcache.overallMshrMissRate::cpu.data     0.000504                       # mshr miss ratio for overall accesses (Ratio)
system.cpu.dcache.overallMshrMissRate::total     0.000504                       # mshr miss ratio for overall accesses (Ratio)
system.cpu.dcache.demandAvgMshrMissLatency::cpu.data 75947.488279                       # average overall mshr miss latency ((Tick/Count))
system.cpu.dcache.demandAvgMshrMissLatency::total 75947.488279                       # average overall mshr miss latency ((Tick/Count))
system.cpu.dcache.overallAvgMshrMissLatency::cpu.data 75947.488279                       # average overall mshr miss latency ((Tick/Count))
system.cpu.dcache.overallAvgMshrMissLatency::total 75947.488279                       # average overall mshr miss latency ((Tick/Count))
system.cpu.dcache.replacements                 184540                       # number of replacements (Count)
system.cpu.dcache.LoadLockedReq.hits::cpu.data          435                       # number of LoadLockedReq hits (Count)
system.cpu.dcache.LoadLockedReq.hits::total          435                       # number of LoadLockedReq hits (Count)
system.cpu.dcache.LoadLockedReq.misses::cpu.data           16                       # number of LoadLockedReq misses (Count)
system.cpu.dcache.LoadLockedReq.misses::total           16                       # number of LoadLockedReq misses (Count)
system.cpu.dcache.LoadLockedReq.missLatency::cpu.data       608500                       # number of LoadLockedReq miss ticks (Tick)
system.cpu.dcache.LoadLockedReq.missLatency::total       608500                       # number of LoadLockedReq miss ticks (Tick)
system.cpu.dcache.LoadLockedReq.accesses::cpu.data          451                       # number of LoadLockedReq accesses(hits+misses) (Count)
system.cpu.dcache.LoadLockedReq.accesses::total          451                       # number of LoadLockedReq accesses(hits+misses) (Count)
system.cpu.dcache.LoadLockedReq.missRate::cpu.data     0.035477                       # miss rate for LoadLockedReq accesses (Ratio)
system.cpu.dcache.LoadLockedReq.missRate::total     0.035477                       # miss rate for LoadLockedReq accesses (Ratio)
system.cpu.dcache.LoadLockedReq.avgMissLatency::cpu.data 38031.250000                       # average LoadLockedReq miss latency ((Tick/Count))
system.cpu.dcache.LoadLockedReq.avgMissLatency::total 38031.250000                       # average LoadLockedReq miss latency ((Tick/Count))
system.cpu.dcache.LoadLockedReq.mshrHits::cpu.data           16                       # number of LoadLockedReq MSHR hits (Count)
system.cpu.dcache.LoadLockedReq.mshrHits::total           16                       # number of LoadLockedReq MSHR hits (Count)
system.cpu.dcache.ReadReq.hits::cpu.data    220974610                       # number of ReadReq hits (Count)
system.cpu.dcache.ReadReq.hits::total       220974610                       # number of ReadReq hits (Count)
system.cpu.dcache.ReadReq.misses::cpu.data       268550                       # number of ReadReq misses (Count)
system.cpu.dcache.ReadReq.misses::total        268550                       # number of ReadReq misses (Count)
system.cpu.dcache.ReadReq.missLatency::cpu.data  13685499500                       # number of ReadReq miss ticks (Tick)
system.cpu.dcache.ReadReq.missLatency::total  13685499500                       # number of ReadReq miss ticks (Tick)
system.cpu.dcache.ReadReq.accesses::cpu.data    221243160                       # number of ReadReq accesses(hits+misses) (Count)
system.cpu.dcache.ReadReq.accesses::total    221243160                       # number of ReadReq accesses(hits+misses) (Count)
system.cpu.dcache.ReadReq.missRate::cpu.data     0.001214                       # miss rate for ReadReq accesses (Ratio)
system.cpu.dcache.ReadReq.missRate::total     0.001214                       # miss rate for ReadReq accesses (Ratio)
system.cpu.dcache.ReadReq.avgMissLatency::cpu.data 50960.713089                       # average ReadReq miss latency ((Tick/Count))
system.cpu.dcache.ReadReq.avgMissLatency::total 50960.713089                       # average ReadReq miss latency ((Tick/Count))
system.cpu.dcache.ReadReq.mshrHits::cpu.data       201473                       # number of ReadReq MSHR hits (Count)
system.cpu.dcache.ReadReq.mshrHits::total       201473                       # number of ReadReq MSHR hits (Count)
system.cpu.dcache.ReadReq.mshrMisses::cpu.data        67077                       # number of ReadReq MSHR misses (Count)
system.cpu.dcache.ReadReq.mshrMisses::total        67077                       # number of ReadReq MSHR misses (Count)
system.cpu.dcache.ReadReq.mshrMissLatency::cpu.data   3815988500                       # number of ReadReq MSHR miss ticks (Tick)
system.cpu.dcache.ReadReq.mshrMissLatency::total   3815988500                       # number of ReadReq MSHR miss ticks (Tick)
system.cpu.dcache.ReadReq.mshrMissRate::cpu.data     0.000303                       # mshr miss rate for ReadReq accesses (Ratio)
system.cpu.dcache.ReadReq.mshrMissRate::total     0.000303                       # mshr miss rate for ReadReq accesses (Ratio)
system.cpu.dcache.ReadReq.avgMshrMissLatency::cpu.data 56889.671571                       # average ReadReq mshr miss latency ((Tick/Count))
system.cpu.dcache.ReadReq.avgMshrMissLatency::total 56889.671571                       # average ReadReq mshr miss latency ((Tick/Count))
system.cpu.dcache.StoreCondReq.hits::cpu.data          427                       # number of StoreCondReq hits (Count)
system.cpu.dcache.StoreCondReq.hits::total          427                       # number of StoreCondReq hits (Count)
system.cpu.dcache.StoreCondReq.accesses::cpu.data          427                       # number of StoreCondReq accesses(hits+misses) (Count)
system.cpu.dcache.StoreCondReq.accesses::total          427                       # number of StoreCondReq accesses(hits+misses) (Count)
system.cpu.dcache.WriteReq.hits::cpu.data    144465384                       # number of WriteReq hits (Count)
system.cpu.dcache.WriteReq.hits::total      144465384                       # number of WriteReq hits (Count)
system.cpu.dcache.WriteReq.misses::cpu.data      1154360                       # number of WriteReq misses (Count)
system.cpu.dcache.WriteReq.misses::total      1154360                       # number of WriteReq misses (Count)
system.cpu.dcache.WriteReq.missLatency::cpu.data  99077422477                       # number of WriteReq miss ticks (Tick)
system.cpu.dcache.WriteReq.missLatency::total  99077422477                       # number of WriteReq miss ticks (Tick)
system.cpu.dcache.WriteReq.accesses::cpu.data    145619744                       # number of WriteReq accesses(hits+misses) (Count)
system.cpu.dcache.WriteReq.accesses::total    145619744                       # number of WriteReq accesses(hits+misses) (Count)
system.cpu.dcache.WriteReq.missRate::cpu.data     0.007927                       # miss rate for WriteReq accesses (Ratio)
system.cpu.dcache.WriteReq.missRate::total     0.007927                       # miss rate for WriteReq accesses (Ratio)
system.cpu.dcache.WriteReq.avgMissLatency::cpu.data 85828.877020                       # average WriteReq miss latency ((Tick/Count))
system.cpu.dcache.WriteReq.avgMissLatency::total 85828.877020                       # average WriteReq miss latency ((Tick/Count))
system.cpu.dcache.WriteReq.mshrHits::cpu.data      1036383                       # number of WriteReq MSHR hits (Count)
system.cpu.dcache.WriteReq.mshrHits::total      1036383                       # number of WriteReq MSHR hits (Count)
system.cpu.dcache.WriteReq.mshrMisses::cpu.data       117977                       # number of WriteReq MSHR misses (Count)
system.cpu.dcache.WriteReq.mshrMisses::total       117977                       # number of WriteReq MSHR misses (Count)
system.cpu.dcache.WriteReq.mshrMissLatency::cpu.data  10238397996                       # number of WriteReq MSHR miss ticks (Tick)
system.cpu.dcache.WriteReq.mshrMissLatency::total  10238397996                       # number of WriteReq MSHR miss ticks (Tick)
system.cpu.dcache.WriteReq.mshrMissRate::cpu.data     0.000810                       # mshr miss rate for WriteReq accesses (Ratio)
system.cpu.dcache.WriteReq.mshrMissRate::total     0.000810                       # mshr miss rate for WriteReq accesses (Ratio)
system.cpu.dcache.WriteReq.avgMshrMissLatency::cpu.data 86783.000042                       # average WriteReq mshr miss latency ((Tick/Count))
system.cpu.dcache.WriteReq.avgMshrMissLatency::total 86783.000042                       # average WriteReq mshr miss latency ((Tick/Count))
system.cpu.dcache.power_state.pwrStateResidencyTicks::UNDEFINED 231532788000                       # Cumulative time (in ticks) in various power states (Tick)
system.cpu.dcache.tags.tagsInUse           511.886970                       # Average ticks per tags in use ((Tick/Count))
system.cpu.dcache.tags.totalRefs            365625912                       # Total number of references to valid blocks. (Count)
system.cpu.dcache.tags.sampledRefs             185052                       # Sample count of references to valid blocks. (Count)
system.cpu.dcache.tags.avgRefs            1975.800921                       # Average number of references to valid blocks. ((Count/Count))
system.cpu.dcache.tags.warmupTick              148500                       # The tick when the warmup percentage was hit. (Tick)
system.cpu.dcache.tags.occupancies::cpu.data   511.886970                       # Average occupied blocks per tick, per requestor ((Count/Tick))
system.cpu.dcache.tags.avgOccs::cpu.data     0.999779                       # Average percentage of cache occupancy ((Ratio/Tick))
system.cpu.dcache.tags.avgOccs::total        0.999779                       # Average percentage of cache occupancy ((Ratio/Tick))
system.cpu.dcache.tags.occupanciesTaskId::1024          512                       # Occupied blocks per task id (Count)
system.cpu.dcache.tags.ageTaskId_1024::0            3                       # Occupied blocks per task id, per block age (Count)
system.cpu.dcache.tags.ageTaskId_1024::1           20                       # Occupied blocks per task id, per block age (Count)
system.cpu.dcache.tags.ageTaskId_1024::2          200                       # Occupied blocks per task id, per block age (Count)
system.cpu.dcache.tags.ageTaskId_1024::3          122                       # Occupied blocks per task id, per block age (Count)
system.cpu.dcache.tags.ageTaskId_1024::4          167                       # Occupied blocks per task id, per block age (Count)
system.cpu.dcache.tags.ratioOccsTaskId::1024            1                       # Ratio of occupied blocks and all blocks, per task id (Ratio)
system.cpu.dcache.tags.tagAccesses         1467640180                       # Number of tag accesses (Count)
system.cpu.dcache.tags.dataAccesses        1467640180                       # Number of data accesses (Count)
system.cpu.dcache.tags.power_state.pwrStateResidencyTicks::UNDEFINED 231532788000                       # Cumulative time (in ticks) in various power states (Tick)
system.cpu.decode.idleCycles                152542701                       # Number of cycles decode is idle (Cycle)
system.cpu.decode.blockedCycles              86413999                       # Number of cycles decode is blocked (Cycle)
system.cpu.decode.runCycles                 195468954                       # Number of cycles decode is running (Cycle)
system.cpu.decode.unblockCycles              25625913                       # Number of cycles decode is unblocking (Cycle)
system.cpu.decode.squashCycles                2937063                       # Number of cycles decode is squashing (Cycle)
system.cpu.decode.branchResolved             66264544                       # Number of times decode resolved a branch (Count)
system.cpu.decode.branchMispred               3343131                       # Number of times decode detected a branch misprediction (Count)
system.cpu.decode.decodedInsts             1270758702                       # Number of instructions handled by decode (Count)
system.cpu.decode.squashedInsts               6685340                       # Number of squashed instructions handled by decode (Count)
system.cpu.fetch.icacheStallCycles          182025859                       # Number of cycles fetch is stalled on an Icache miss (Cycle)
system.cpu.fetch.insts                     1210809561                       # Number of instructions fetch has processed (Count)
system.cpu.fetch.branches                   234844235                       # Number of branches that fetch encountered (Count)
system.cpu.fetch.predictedBranches           92572946                       # Number of branches that fetch has predicted taken (Count)
system.cpu.fetch.cycles                     274683026                       # Number of cycles fetch has run and was not squashing or blocked (Cycle)
system.cpu.fetch.squashCycles                12559094                       # Number of cycles fetch has spent squashing (Cycle)
system.cpu.fetch.miscStallCycles                   98                       # Number of cycles fetch has spent waiting on interrupts, or bad addresses, or out of MSHRs (Cycle)
system.cpu.fetch.pendingTrapStallCycles            79                       # Number of stall cycles due to pending traps (Cycle)
system.cpu.fetch.icacheWaitRetryStallCycles           21                       # Number of stall cycles due to full MSHR (Cycle)
system.cpu.fetch.cacheLines                 176975983                       # Number of cache lines fetched (Count)
system.cpu.fetch.icacheSquashes               1250350                       # Number of outstanding Icache misses that were squashed (Count)
system.cpu.fetch.nisnDist::samples          462988630                       # Number of instructions fetched each cycle (Total) (Count)
system.cpu.fetch.nisnDist::mean              2.955078                       # Number of instructions fetched each cycle (Total) (Count)
system.cpu.fetch.nisnDist::stdev             3.390837                       # Number of instructions fetched each cycle (Total) (Count)
system.cpu.fetch.nisnDist::underflows               0      0.00%      0.00% # Number of instructions fetched each cycle (Total) (Count)
system.cpu.fetch.nisnDist::0                215956049     46.64%     46.64% # Number of instructions fetched each cycle (Total) (Count)
system.cpu.fetch.nisnDist::1                 28566495      6.17%     52.81% # Number of instructions fetched each cycle (Total) (Count)
system.cpu.fetch.nisnDist::2                 29668700      6.41%     59.22% # Number of instructions fetched each cycle (Total) (Count)
system.cpu.fetch.nisnDist::3                  6703597      1.45%     60.67% # Number of instructions fetched each cycle (Total) (Count)
system.cpu.fetch.nisnDist::4                 25587782      5.53%     66.20% # Number of instructions fetched each cycle (Total) (Count)
system.cpu.fetch.nisnDist::5                 20554111      4.44%     70.64% # Number of instructions fetched each cycle (Total) (Count)
system.cpu.fetch.nisnDist::6                 11693178      2.53%     73.16% # Number of instructions fetched each cycle (Total) (Count)
system.cpu.fetch.nisnDist::7                  9197466      1.99%     75.15% # Number of instructions fetched each cycle (Total) (Count)
system.cpu.fetch.nisnDist::8                115061252     24.85%    100.00% # Number of instructions fetched each cycle (Total) (Count)
system.cpu.fetch.nisnDist::overflows                0      0.00%    100.00% # Number of instructions fetched each cycle (Total) (Count)
system.cpu.fetch.nisnDist::min_value                0                       # Number of instructions fetched each cycle (Total) (Count)
system.cpu.fetch.nisnDist::max_value                8                       # Number of instructions fetched each cycle (Total) (Count)
system.cpu.fetch.nisnDist::total            462988630                       # Number of instructions fetched each cycle (Total) (Count)
system.cpu.fetch.branchRate                  0.507151                       # Number of branch fetches per cycle (Ratio)
system.cpu.fetch.rate                        2.614769                       # Number of inst fetches per cycle ((Count/Cycle))
system.cpu.icache.demandHits::cpu.inst      176973949                       # number of demand (read+write) hits (Count)
system.cpu.icache.demandHits::total         176973949                       # number of demand (read+write) hits (Count)
system.cpu.icache.overallHits::cpu.inst     176973949                       # number of overall hits (Count)
system.cpu.icache.overallHits::total        176973949                       # number of overall hits (Count)
system.cpu.icache.demandMisses::cpu.inst         2033                       # number of demand (read+write) misses (Count)
system.cpu.icache.demandMisses::total            2033                       # number of demand (read+write) misses (Count)
system.cpu.icache.overallMisses::cpu.inst         2033                       # number of overall misses (Count)
system.cpu.icache.overallMisses::total           2033                       # number of overall misses (Count)
system.cpu.icache.demandMissLatency::cpu.inst    115699000                       # number of demand (read+write) miss ticks (Tick)
system.cpu.icache.demandMissLatency::total    115699000                       # number of demand (read+write) miss ticks (Tick)
system.cpu.icache.overallMissLatency::cpu.inst    115699000                       # number of overall miss ticks (Tick)
system.cpu.icache.overallMissLatency::total    115699000                       # number of overall miss ticks (Tick)
system.cpu.icache.demandAccesses::cpu.inst    176975982                       # number of demand (read+write) accesses (Count)
system.cpu.icache.demandAccesses::total     176975982                       # number of demand (read+write) accesses (Count)
system.cpu.icache.overallAccesses::cpu.inst    176975982                       # number of overall (read+write) accesses (Count)
system.cpu.icache.overallAccesses::total    176975982                       # number of overall (read+write) accesses (Count)
system.cpu.icache.demandMissRate::cpu.inst     0.000011                       # miss rate for demand accesses (Ratio)
system.cpu.icache.demandMissRate::total      0.000011                       # miss rate for demand accesses (Ratio)
system.cpu.icache.overallMissRate::cpu.inst     0.000011                       # miss rate for overall accesses (Ratio)
system.cpu.icache.overallMissRate::total     0.000011                       # miss rate for overall accesses (Ratio)
system.cpu.icache.demandAvgMissLatency::cpu.inst 56910.477127                       # average overall miss latency in ticks ((Tick/Count))
system.cpu.icache.demandAvgMissLatency::total 56910.477127                       # average overall miss latency in ticks ((Tick/Count))
system.cpu.icache.overallAvgMissLatency::cpu.inst 56910.477127                       # average overall miss latency ((Tick/Count))
system.cpu.icache.overallAvgMissLatency::total 56910.477127                       # average overall miss latency ((Tick/Count))
system.cpu.icache.blockedCycles::no_mshrs         1079                       # number of cycles access was blocked (Cycle)
system.cpu.icache.blockedCycles::no_targets            0                       # number of cycles access was blocked (Cycle)
system.cpu.icache.blockedCauses::no_mshrs           15                       # number of times access was blocked (Count)
system.cpu.icache.blockedCauses::no_targets            0                       # number of times access was blocked (Count)
system.cpu.icache.avgBlocked::no_mshrs      71.933333                       # average number of cycles each access was blocked ((Cycle/Count))
system.cpu.icache.avgBlocked::no_targets          nan                       # average number of cycles each access was blocked ((Cycle/Count))
system.cpu.icache.demandMshrHits::cpu.inst          473                       # number of demand (read+write) MSHR hits (Count)
system.cpu.icache.demandMshrHits::total           473                       # number of demand (read+write) MSHR hits (Count)
system.cpu.icache.overallMshrHits::cpu.inst          473                       # number of overall MSHR hits (Count)
system.cpu.icache.overallMshrHits::total          473                       # number of overall MSHR hits (Count)
system.cpu.icache.demandMshrMisses::cpu.inst         1560                       # number of demand (read+write) MSHR misses (Count)
system.cpu.icache.demandMshrMisses::total         1560                       # number of demand (read+write) MSHR misses (Count)
system.cpu.icache.overallMshrMisses::cpu.inst         1560                       # number of overall MSHR misses (Count)
system.cpu.icache.overallMshrMisses::total         1560                       # number of overall MSHR misses (Count)
system.cpu.icache.demandMshrMissLatency::cpu.inst     89949000                       # number of demand (read+write) MSHR miss ticks (Tick)
system.cpu.icache.demandMshrMissLatency::total     89949000                       # number of demand (read+write) MSHR miss ticks (Tick)
system.cpu.icache.overallMshrMissLatency::cpu.inst     89949000                       # number of overall MSHR miss ticks (Tick)
system.cpu.icache.overallMshrMissLatency::total     89949000                       # number of overall MSHR miss ticks (Tick)
system.cpu.icache.demandMshrMissRate::cpu.inst     0.000009                       # mshr miss ratio for demand accesses (Ratio)
system.cpu.icache.demandMshrMissRate::total     0.000009                       # mshr miss ratio for demand accesses (Ratio)
system.cpu.icache.overallMshrMissRate::cpu.inst     0.000009                       # mshr miss ratio for overall accesses (Ratio)
system.cpu.icache.overallMshrMissRate::total     0.000009                       # mshr miss ratio for overall accesses (Ratio)
system.cpu.icache.demandAvgMshrMissLatency::cpu.inst 57659.615385                       # average overall mshr miss latency ((Tick/Count))
system.cpu.icache.demandAvgMshrMissLatency::total 57659.615385                       # average overall mshr miss latency ((Tick/Count))
system.cpu.icache.overallAvgMshrMissLatency::cpu.inst 57659.615385                       # average overall mshr miss latency ((Tick/Count))
system.cpu.icache.overallAvgMshrMissLatency::total 57659.615385                       # average overall mshr miss latency ((Tick/Count))
system.cpu.icache.replacements                   1047                       # number of replacements (Count)
system.cpu.icache.ReadReq.hits::cpu.inst    176973949                       # number of ReadReq hits (Count)
system.cpu.icache.ReadReq.hits::total       176973949                       # number of ReadReq hits (Count)
system.cpu.icache.ReadReq.misses::cpu.inst         2033                       # number of ReadReq misses (Count)
system.cpu.icache.ReadReq.misses::total          2033                       # number of ReadReq misses (Count)
system.cpu.icache.ReadReq.missLatency::cpu.inst    115699000                       # number of ReadReq miss ticks (Tick)
system.cpu.icache.ReadReq.missLatency::total    115699000                       # number of ReadReq miss ticks (Tick)
system.cpu.icache.ReadReq.accesses::cpu.inst    176975982                       # number of ReadReq accesses(hits+misses) (Count)
system.cpu.icache.ReadReq.accesses::total    176975982                       # number of ReadReq accesses(hits+misses) (Count)
system.cpu.icache.ReadReq.missRate::cpu.inst     0.000011                       # miss rate for ReadReq accesses (Ratio)
system.cpu.icache.ReadReq.missRate::total     0.000011                       # miss rate for ReadReq accesses (Ratio)
system.cpu.icache.ReadReq.avgMissLatency::cpu.inst 56910.477127                       # average ReadReq miss latency ((Tick/Count))
system.cpu.icache.ReadReq.avgMissLatency::total 56910.477127                       # average ReadReq miss latency ((Tick/Count))
system.cpu.icache.ReadReq.mshrHits::cpu.inst          473                       # number of ReadReq MSHR hits (Count)
system.cpu.icache.ReadReq.mshrHits::total          473                       # number of ReadReq MSHR hits (Count)
system.cpu.icache.ReadReq.mshrMisses::cpu.inst         1560                       # number of ReadReq MSHR misses (Count)
system.cpu.icache.ReadReq.mshrMisses::total         1560                       # number of ReadReq MSHR misses (Count)
system.cpu.icache.ReadReq.mshrMissLatency::cpu.inst     89949000                       # number of ReadReq MSHR miss ticks (Tick)
system.cpu.icache.ReadReq.mshrMissLatency::total     89949000                       # number of ReadReq MSHR miss ticks (Tick)
system.cpu.icache.ReadReq.mshrMissRate::cpu.inst     0.000009                       # mshr miss rate for ReadReq accesses (Ratio)
system.cpu.icache.ReadReq.mshrMissRate::total     0.000009                       # mshr miss rate for ReadReq accesses (Ratio)
system.cpu.icache.ReadReq.avgMshrMissLatency::cpu.inst 57659.615385                       # average ReadReq mshr miss latency ((Tick/Count))
system.cpu.icache.ReadReq.avgMshrMissLatency::total 57659.615385                       # average ReadReq mshr miss latency ((Tick/Count))
system.cpu.icache.power_state.pwrStateResidencyTicks::UNDEFINED 231532788000                       # Cumulative time (in ticks) in various power states (Tick)
system.cpu.icache.tags.tagsInUse           511.800818                       # Average ticks per tags in use ((Tick/Count))
system.cpu.icache.tags.totalRefs            176975509                       # Total number of references to valid blocks. (Count)
system.cpu.icache.tags.sampledRefs               1560                       # Sample count of references to valid blocks. (Count)
system.cpu.icache.tags.avgRefs           113445.839103                       # Average number of references to valid blocks. ((Count/Count))
system.cpu.icache.tags.warmupTick               81500                       # The tick when the warmup percentage was hit. (Tick)
system.cpu.icache.tags.occupancies::cpu.inst   511.800818                       # Average occupied blocks per tick, per requestor ((Count/Tick))
system.cpu.icache.tags.avgOccs::cpu.inst     0.999611                       # Average percentage of cache occupancy ((Ratio/Tick))
system.cpu.icache.tags.avgOccs::total        0.999611                       # Average percentage of cache occupancy ((Ratio/Tick))
system.cpu.icache.tags.occupanciesTaskId::1024          512                       # Occupied blocks per task id (Count)
system.cpu.icache.tags.ageTaskId_1024::4          512                       # Occupied blocks per task id, per block age (Count)
system.cpu.icache.tags.ratioOccsTaskId::1024            1                       # Ratio of occupied blocks and all blocks, per task id (Ratio)
system.cpu.icache.tags.tagAccesses          707905488                       # Number of tag accesses (Count)
system.cpu.icache.tags.dataAccesses         707905488                       # Number of data accesses (Count)
system.cpu.icache.tags.power_state.pwrStateResidencyTicks::UNDEFINED 231532788000                       # Cumulative time (in ticks) in various power states (Tick)
system.cpu.iew.idleCycles                           0                       # Number of cycles IEW is idle (Cycle)
system.cpu.iew.squashCycles                   2937063                       # Number of cycles IEW is squashing (Cycle)
system.cpu.iew.blockCycles                   11738318                       # Number of cycles IEW is blocking (Cycle)
system.cpu.iew.unblockCycles                    16600                       # Number of cycles IEW is unblocking (Cycle)
system.cpu.iew.dispatchedInsts             1235109321                       # Number of instructions dispatched to IQ (Count)
system.cpu.iew.dispSquashedInsts                 4620                       # Number of squashed instructions skipped by dispatch (Count)
system.cpu.iew.dispLoadInsts                268200249                       # Number of dispatched load instructions (Count)
system.cpu.iew.dispStoreInsts               154885409                       # Number of dispatched store instructions (Count)
system.cpu.iew.dispNonSpecInsts                  1498                       # Number of dispatched non-speculative instructions (Count)
system.cpu.iew.iqFullEvents                       657                       # Number of times the IQ has become full, causing a stall (Count)
system.cpu.iew.lsqFullEvents                    15902                       # Number of times the LSQ has become full, causing a stall (Count)
system.cpu.iew.memOrderViolationEvents          15161                       # Number of memory order violations (Count)
system.cpu.iew.predictedTakenIncorrect           9906                       # Number of branches that were predicted taken incorrectly (Count)
system.cpu.iew.predictedNotTakenIncorrect      4166546                       # Number of branches that were predicted not taken incorrectly (Count)
system.cpu.iew.branchMispredicts              4176452                       # Number of branch mispredicts detected at execute (Count)
system.cpu.iew.instsToCommit               1168305410                       # Cumulative count of insts sent to commit (Count)
system.cpu.iew.writebackCount              1168282663                       # Cumulative count of insts written-back (Count)
system.cpu.iew.producerInst                 708962485                       # Number of instructions producing a value (Count)
system.cpu.iew.consumerInst                1236403850                       # Number of instructions consuming a value (Count)
system.cpu.iew.wbRate                        2.522931                       # Insts written-back per cycle ((Count/Cycle))
system.cpu.iew.wbFanout                      0.573407                       # Average fanout of values written-back ((Count/Count))
system.cpu.lsq0.forwLoads                    33206963                       # Number of loads that had data forwarded from stores (Count)
system.cpu.lsq0.squashedLoads                19217132                       # Number of loads squashed (Count)
system.cpu.lsq0.ignoredResponses              1251342                       # Number of memory responses ignored because the instruction is squashed (Count)
system.cpu.lsq0.memOrderViolation               15161                       # Number of memory ordering violations (Count)
system.cpu.lsq0.squashedStores                6339494                       # Number of stores squashed (Count)
system.cpu.lsq0.rescheduledLoads             19915492                       # Number of loads that were rescheduled (Count)
system.cpu.lsq0.blockedByCache                     76                       # Number of times an access to memory failed due to the cache being blocked (Count)
system.cpu.lsq0.loadToUse::samples          248983107                       # Distribution of cycle latency between the first time a load is issued and its completion (Unspecified)
system.cpu.lsq0.loadToUse::mean              3.858669                       # Distribution of cycle latency between the first time a load is issued and its completion (Unspecified)
system.cpu.lsq0.loadToUse::stdev             5.710380                       # Distribution of cycle latency between the first time a load is issued and its completion (Unspecified)
system.cpu.lsq0.loadToUse::0-9              238455867     95.77%     95.77% # Distribution of cycle latency between the first time a load is issued and its completion (Unspecified)
system.cpu.lsq0.loadToUse::10-19              7531366      3.02%     98.80% # Distribution of cycle latency between the first time a load is issued and its completion (Unspecified)
system.cpu.lsq0.loadToUse::20-29              2413028      0.97%     99.77% # Distribution of cycle latency between the first time a load is issued and its completion (Unspecified)
system.cpu.lsq0.loadToUse::30-39               417795      0.17%     99.93% # Distribution of cycle latency between the first time a load is issued and its completion (Unspecified)
system.cpu.lsq0.loadToUse::40-49                 3928      0.00%     99.94% # Distribution of cycle latency between the first time a load is issued and its completion (Unspecified)
system.cpu.lsq0.loadToUse::50-59                  778      0.00%     99.94% # Distribution of cycle latency between the first time a load is issued and its completion (Unspecified)
system.cpu.lsq0.loadToUse::60-69                 8936      0.00%     99.94% # Distribution of cycle latency between the first time a load is issued and its completion (Unspecified)
system.cpu.lsq0.loadToUse::70-79                24677      0.01%     99.95% # Distribution of cycle latency between the first time a load is issued and its completion (Unspecified)
system.cpu.lsq0.loadToUse::80-89                24028      0.01%     99.96% # Distribution of cycle latency between the first time a load is issued and its completion (Unspecified)
system.cpu.lsq0.loadToUse::90-99                 3472      0.00%     99.96% # Distribution of cycle latency between the first time a load is issued and its completion (Unspecified)
system.cpu.lsq0.loadToUse::100-109                959      0.00%     99.96% # Distribution of cycle latency between the first time a load is issued and its completion (Unspecified)
system.cpu.lsq0.loadToUse::110-119               2807      0.00%     99.96% # Distribution of cycle latency between the first time a load is issued and its completion (Unspecified)
system.cpu.lsq0.loadToUse::120-129              19974      0.01%     99.97% # Distribution of cycle latency between the first time a load is issued and its completion (Unspecified)
system.cpu.lsq0.loadToUse::130-139              24263      0.01%     99.98% # Distribution of cycle latency between the first time a load is issued and its completion (Unspecified)
system.cpu.lsq0.loadToUse::140-149                267      0.00%     99.98% # Distribution of cycle latency between the first time a load is issued and its completion (Unspecified)
system.cpu.lsq0.loadToUse::150-159               1151      0.00%     99.98% # Distribution of cycle latency between the first time a load is issued and its completion (Unspecified)
system.cpu.lsq0.loadToUse::160-169                417      0.00%     99.98% # Distribution of cycle latency between the first time a load is issued and its completion (Unspecified)
system.cpu.lsq0.loadToUse::170-179                 40      0.00%     99.98% # Distribution of cycle latency between the first time a load is issued and its completion (Unspecified)
system.cpu.lsq0.loadToUse::180-189              15943      0.01%     99.99% # Distribution of cycle latency between the first time a load is issued and its completion (Unspecified)
system.cpu.lsq0.loadToUse::190-199              12883      0.01%     99.99% # Distribution of cycle latency between the first time a load is issued and its completion (Unspecified)
system.cpu.lsq0.loadToUse::200-209                 22      0.00%     99.99% # Distribution of cycle latency between the first time a load is issued and its completion (Unspecified)
[...]
system.mem_ctrl.dram.perBankRdBursts::7          4770                       # Per bank write bursts (Count)
system.mem_ctrl.dram.perBankRdBursts::8          4801                       # Per bank write bursts (Count)
system.mem_ctrl.dram.perBankRdBursts::9          4795                       # Per bank write bursts (Count)
system.mem_ctrl.dram.perBankRdBursts::10         4795                       # Per bank write bursts (Count)
system.mem_ctrl.dram.perBankRdBursts::11         4758                       # Per bank write bursts (Count)
system.mem_ctrl.dram.perBankRdBursts::12         4753                       # Per bank write bursts (Count)
system.mem_ctrl.dram.perBankRdBursts::13         4744                       # Per bank write bursts (Count)
system.mem_ctrl.dram.perBankRdBursts::14         4758                       # Per bank write bursts (Count)
system.mem_ctrl.dram.perBankRdBursts::15         4801                       # Per bank write bursts (Count)
system.mem_ctrl.dram.perBankRdBursts::16         4767                       # Per bank write bursts (Count)
system.mem_ctrl.dram.perBankRdBursts::17         4769                       # Per bank write bursts (Count)
system.mem_ctrl.dram.perBankRdBursts::18         4804                       # Per bank write bursts (Count)
system.mem_ctrl.dram.perBankRdBursts::19         4749                       # Per bank write bursts (Count)
system.mem_ctrl.dram.perBankRdBursts::20         4753                       # Per bank write bursts (Count)
system.mem_ctrl.dram.perBankRdBursts::21         4804                       # Per bank write bursts (Count)
system.mem_ctrl.dram.perBankRdBursts::22         4768                       # Per bank write bursts (Count)
system.mem_ctrl.dram.perBankRdBursts::23         4756                       # Per bank write bursts (Count)
system.mem_ctrl.dram.perBankRdBursts::24         4740                       # Per bank write bursts (Count)
system.mem_ctrl.dram.perBankRdBursts::25         4815                       # Per bank write bursts (Count)
system.mem_ctrl.dram.perBankRdBursts::26         4856                       # Per bank write bursts (Count)
system.mem_ctrl.dram.perBankRdBursts::27         4754                       # Per bank write bursts (Count)
system.mem_ctrl.dram.perBankRdBursts::28         4721                       # Per bank write bursts (Count)
system.mem_ctrl.dram.perBankRdBursts::29         4690                       # Per bank write bursts (Count)
system.mem_ctrl.dram.perBankRdBursts::30         4732                       # Per bank write bursts (Count)
system.mem_ctrl.dram.perBankRdBursts::31         4724                       # Per bank write bursts (Count)
system.mem_ctrl.dram.perBankWrBursts::0          2889                       # Per bank write bursts (Count)
system.mem_ctrl.dram.perBankWrBursts::1          2855                       # Per bank write bursts (Count)
system.mem_ctrl.dram.perBankWrBursts::2          2945                       # Per bank write bursts (Count)
system.mem_ctrl.dram.perBankWrBursts::3          2818                       # Per bank write bursts (Count)
system.mem_ctrl.dram.perBankWrBursts::4          2819                       # Per bank write bursts (Count)
system.mem_ctrl.dram.perBankWrBursts::5          2944                       # Per bank write bursts (Count)
system.mem_ctrl.dram.perBankWrBursts::6          2944                       # Per bank write bursts (Count)
system.mem_ctrl.dram.perBankWrBursts::7          2944                       # Per bank write bursts (Count)
system.mem_ctrl.dram.perBankWrBursts::8          2944                       # Per bank write bursts (Count)
system.mem_ctrl.dram.perBankWrBursts::9          2944                       # Per bank write bursts (Count)
system.mem_ctrl.dram.perBankWrBursts::10         2944                       # Per bank write bursts (Count)
system.mem_ctrl.dram.perBankWrBursts::11         2944                       # Per bank write bursts (Count)
system.mem_ctrl.dram.perBankWrBursts::12         2944                       # Per bank write bursts (Count)
system.mem_ctrl.dram.perBankWrBursts::13         2944                       # Per bank write bursts (Count)
system.mem_ctrl.dram.perBankWrBursts::14         2944                       # Per bank write bursts (Count)
system.mem_ctrl.dram.perBankWrBursts::15         2944                       # Per bank write bursts (Count)
system.mem_ctrl.dram.perBankWrBursts::16         2944                       # Per bank write bursts (Count)
system.mem_ctrl.dram.perBankWrBursts::17         2944                       # Per bank write bursts (Count)
system.mem_ctrl.dram.perBankWrBursts::18         2944                       # Per bank write bursts (Count)
system.mem_ctrl.dram.perBankWrBursts::19         2941                       # Per bank write bursts (Count)
system.mem_ctrl.dram.perBankWrBursts::20         2944                       # Per bank write bursts (Count)
system.mem_ctrl.dram.perBankWrBursts::21         2944                       # Per bank write bursts (Count)
system.mem_ctrl.dram.perBankWrBursts::22         2944                       # Per bank write bursts (Count)
system.mem_ctrl.dram.perBankWrBursts::23         2944                       # Per bank write bursts (Count)
system.mem_ctrl.dram.perBankWrBursts::24         2944                       # Per bank write bursts (Count)
system.mem_ctrl.dram.perBankWrBursts::25         2944                       # Per bank write bursts (Count)
system.mem_ctrl.dram.perBankWrBursts::26         2970                       # Per bank write bursts (Count)
system.mem_ctrl.dram.perBankWrBursts::27         2947                       # Per bank write bursts (Count)
system.mem_ctrl.dram.perBankWrBursts::28         2844                       # Per bank write bursts (Count)
system.mem_ctrl.dram.perBankWrBursts::29         2858                       # Per bank write bursts (Count)
system.mem_ctrl.dram.perBankWrBursts::30         2891                       # Per bank write bursts (Count)
system.mem_ctrl.dram.perBankWrBursts::31         2829                       # Per bank write bursts (Count)
system.mem_ctrl.dram.totQLat               3861979440                       # Total ticks spent queuing (Tick)
system.mem_ctrl.dram.totBusLat              508979660                       # Total ticks spent in databus transfers (Tick)
system.mem_ctrl.dram.totMemAccLat          6533969900                       # Total ticks spent from burst creation until serviced by the DRAM (Tick)
system.mem_ctrl.dram.avgQLat                 25282.18                       # Average queueing delay per DRAM burst ((Tick/Count))
system.mem_ctrl.dram.avgBusLat                3332.00                       # Average bus latency per DRAM burst ((Tick/Count))
system.mem_ctrl.dram.avgMemAccLat            42774.18                       # Average memory access latency per DRAM burst ((Tick/Count))
system.mem_ctrl.dram.readRowHits                97119                       # Number of row buffer hits during reads (Count)
system.mem_ctrl.dram.writeRowHits               82975                       # Number of row buffer hits during writes (Count)
system.mem_ctrl.dram.readRowHitRate             63.58                       # Row buffer hit rate for reads (Ratio)
system.mem_ctrl.dram.writeRowHitRate            88.76                       # Row buffer hit rate for writes (Ratio)
system.mem_ctrl.dram.bytesPerActivate::samples        66146                       # Bytes accessed per row activation (Byte)
system.mem_ctrl.dram.bytesPerActivate::mean   238.250174                       # Bytes accessed per row activation (Byte)
system.mem_ctrl.dram.bytesPerActivate::gmean   154.987253                       # Bytes accessed per row activation (Byte)
system.mem_ctrl.dram.bytesPerActivate::stdev   266.780949                       # Bytes accessed per row activation (Byte)
system.mem_ctrl.dram.bytesPerActivate::0-127        19856     30.02%     30.02% # Bytes accessed per row activation (Byte)
system.mem_ctrl.dram.bytesPerActivate::128-255        31546     47.69%     77.71% # Bytes accessed per row activation (Byte)
system.mem_ctrl.dram.bytesPerActivate::256-383         1071      1.62%     79.33% # Bytes accessed per row activation (Byte)
system.mem_ctrl.dram.bytesPerActivate::384-511         2568      3.88%     83.21% # Bytes accessed per row activation (Byte)
system.mem_ctrl.dram.bytesPerActivate::512-639         3973      6.01%     89.22% # Bytes accessed per row activation (Byte)
system.mem_ctrl.dram.bytesPerActivate::640-767         1874      2.83%     92.05% # Bytes accessed per row activation (Byte)
system.mem_ctrl.dram.bytesPerActivate::768-895          517      0.78%     92.83% # Bytes accessed per row activation (Byte)
system.mem_ctrl.dram.bytesPerActivate::896-1023          790      1.19%     94.03% # Bytes accessed per row activation (Byte)
system.mem_ctrl.dram.bytesPerActivate::1024-1151         3951      5.97%    100.00% # Bytes accessed per row activation (Byte)
system.mem_ctrl.dram.bytesPerActivate::total        66146                       # Bytes accessed per row activation (Byte)
system.mem_ctrl.dram.bytesRead                9776320                       # Total bytes read (Byte)
system.mem_ctrl.dram.bytesWritten             5983104                       # Total bytes written (Byte)
system.mem_ctrl.dram.avgRdBW                42.224344                       # Average DRAM read bandwidth in MiBytes/s ((Byte/Second))
system.mem_ctrl.dram.avgWrBW                25.841282                       # Average DRAM write bandwidth in MiBytes/s ((Byte/Second))
system.mem_ctrl.dram.peakBW                  19207.00                       # Theoretical peak bandwidth in MiByte/s ((Byte/Second))
system.mem_ctrl.dram.busUtil                     0.35                       # Data bus utilization in percentage (Ratio)
system.mem_ctrl.dram.busUtilRead                 0.22                       # Data bus utilization in percentage for reads (Ratio)
system.mem_ctrl.dram.busUtilWrite                0.13                       # Data bus utilization in percentage for writes (Ratio)
system.mem_ctrl.dram.pageHitRate                73.14                       # Row buffer hit rate, read and write combined (Ratio)
system.mem_ctrl.dram.power_state.pwrStateResidencyTicks::UNDEFINED 231532788000                       # Cumulative time (in ticks) in various power states (Tick)
system.mem_ctrl.dram.rank0.actEnergy     102320015.616019                       # Energy for activate commands per rank (pJ) (Joule)
system.mem_ctrl.dram.rank0.preEnergy     136033148.966412                       # Energy for precharge commands per rank (pJ) (Joule)
system.mem_ctrl.dram.rank0.readEnergy    322006169.990360                       # Energy for read commands per rank (pJ) (Joule)
system.mem_ctrl.dram.rank0.writeEnergy   175559348.160002                       # Energy for write commands per rank (pJ) (Joule)
system.mem_ctrl.dram.rank0.refreshEnergy 41196974500.041679                       # Energy for refresh commands per rank (pJ) (Joule)
system.mem_ctrl.dram.rank0.actBackEnergy 78958582620.509323                       # Energy for active background per rank (pJ) (Joule)
system.mem_ctrl.dram.rank0.preBackEnergy 90475862660.999008                       # Energy for precharge background per rank (pJ) (Joule)
system.mem_ctrl.dram.rank0.actPowerDownEnergy            0                       # Energy for active power-down per rank (pJ) (Joule)
system.mem_ctrl.dram.rank0.prePowerDownEnergy            0                       # Energy for precharge power-down per rank (pJ) (Joule)
system.mem_ctrl.dram.rank0.selfRefreshEnergy            0                       # Energy for self refresh per rank (pJ) (Joule)
system.mem_ctrl.dram.rank0.totalEnergy   211367338464.296387                       # Total energy per rank (pJ) (Joule)
system.mem_ctrl.dram.rank0.averagePower    912.904562                       # Core power per rank (mW) (Watt)
system.mem_ctrl.dram.rank0.totalIdleTime            0                       # Total Idle time Per DRAM Rank (Tick)
system.mem_ctrl.dram.rank0.pwrStateTime::IDLE 137941099416                       # Time in different power states (Tick)
system.mem_ctrl.dram.rank0.pwrStateTime::REF  10407950000                       # Time in different power states (Tick)
system.mem_ctrl.dram.rank0.pwrStateTime::SREF            0                       # Time in different power states (Tick)
system.mem_ctrl.dram.rank0.pwrStateTime::PRE_PDN            0                       # Time in different power states (Tick)
system.mem_ctrl.dram.rank0.pwrStateTime::ACT  83183738584                       # Time in different power states (Tick)
system.mem_ctrl.dram.rank0.pwrStateTime::ACT_PDN            0                       # Time in different power states (Tick)
system.mem_ctrl.dram.rank1.actEnergy     103976072.928018                       # Energy for activate commands per rank (pJ) (Joule)
system.mem_ctrl.dram.rank1.preEnergy     138230709.590407                       # Energy for precharge commands per rank (pJ) (Joule)
system.mem_ctrl.dram.rank1.readEnergy    320529752.793560                       # Energy for read commands per rank (pJ) (Joule)
system.mem_ctrl.dram.rank1.writeEnergy   175807408.896002                       # Energy for write commands per rank (pJ) (Joule)
system.mem_ctrl.dram.rank1.refreshEnergy 41196974500.041679                       # Energy for refresh commands per rank (pJ) (Joule)
system.mem_ctrl.dram.rank1.actBackEnergy 82697865196.957840                       # Energy for active background per rank (pJ) (Joule)
system.mem_ctrl.dram.rank1.preBackEnergy 87602741585.311356                       # Energy for precharge background per rank (pJ) (Joule)
system.mem_ctrl.dram.rank1.actPowerDownEnergy            0                       # Energy for active power-down per rank (pJ) (Joule)
system.mem_ctrl.dram.rank1.prePowerDownEnergy            0                       # Energy for precharge power-down per rank (pJ) (Joule)
system.mem_ctrl.dram.rank1.selfRefreshEnergy            0                       # Energy for self refresh per rank (pJ) (Joule)
system.mem_ctrl.dram.rank1.totalEnergy   212236125226.534485                       # Total energy per rank (pJ) (Joule)
system.mem_ctrl.dram.rank1.averagePower    916.656889                       # Core power per rank (mW) (Watt)
system.mem_ctrl.dram.rank1.totalIdleTime            0                       # Total Idle time Per DRAM Rank (Tick)
system.mem_ctrl.dram.rank1.pwrStateTime::IDLE 133530844396                       # Time in different power states (Tick)
system.mem_ctrl.dram.rank1.pwrStateTime::REF  10407950000                       # Time in different power states (Tick)
system.mem_ctrl.dram.rank1.pwrStateTime::SREF            0                       # Time in different power states (Tick)
system.mem_ctrl.dram.rank1.pwrStateTime::PRE_PDN            0                       # Time in different power states (Tick)
system.mem_ctrl.dram.rank1.pwrStateTime::ACT  87593993604                       # Time in different power states (Tick)
system.mem_ctrl.dram.rank1.pwrStateTime::ACT_PDN            0                       # Time in different power states (Tick)
system.mem_ctrl.power_state.pwrStateResidencyTicks::UNDEFINED 231532788000                       # Cumulative time (in ticks) in various power states (Tick)
system.membus.transDist::ReadResp               34887                       # Transaction distribution (Count)
system.membus.transDist::WritebackDirty         93541                       # Transaction distribution (Count)
system.membus.transDist::CleanEvict             25987                       # Transaction distribution (Count)
system.membus.transDist::ReadExReq             117926                       # Transaction distribution (Count)
system.membus.transDist::ReadExResp            117926                       # Transaction distribution (Count)
system.membus.transDist::ReadSharedReq          34887                       # Transaction distribution (Count)
system.membus.pktCount_system.l2cache.mem_side_port::system.mem_ctrl.port       425154                       # Packet count per connected requestor and responder (Count)
system.membus.pktCount::total                  425154                       # Packet count per connected requestor and responder (Count)
system.membus.pktSize_system.l2cache.mem_side_port::system.mem_ctrl.port     15766656                       # Cumulative packet size per connected requestor and responder (Byte)
system.membus.pktSize::total                 15766656                       # Cumulative packet size per connected requestor and responder (Byte)
system.membus.snoops                                0                       # Total snoops (Count)
system.membus.snoopTraffic                          0                       # Total snoop traffic (Byte)
system.membus.snoopFanout::samples             152813                       # Request fanout histogram (Count)
system.membus.snoopFanout::mean                     0                       # Request fanout histogram (Count)
system.membus.snoopFanout::stdev                    0                       # Request fanout histogram (Count)
system.membus.snoopFanout::underflows               0      0.00%      0.00% # Request fanout histogram (Count)
system.membus.snoopFanout::0                   152813    100.00%    100.00% # Request fanout histogram (Count)
system.membus.snoopFanout::1                        0      0.00%    100.00% # Request fanout histogram (Count)
system.membus.snoopFanout::overflows                0      0.00%    100.00% # Request fanout histogram (Count)
system.membus.snoopFanout::min_value                0                       # Request fanout histogram (Count)
system.membus.snoopFanout::max_value                0                       # Request fanout histogram (Count)
system.membus.snoopFanout::total               152813                       # Request fanout histogram (Count)
system.membus.power_state.pwrStateResidencyTicks::UNDEFINED 231532788000                       # Cumulative time (in ticks) in various power states (Tick)
system.membus.reqLayer0.occupancy           323252500                       # Layer occupancy (ticks) (Tick)
system.membus.reqLayer0.utilization               0.0                       # Layer utilization (Ratio)
system.membus.respLayer0.occupancy          401555068                       # Layer occupancy (ticks) (Tick)
system.membus.respLayer0.utilization              0.0                       # Layer utilization (Ratio)
system.membus.snoop_filter.totRequests         272341                       # Total number of requests made to the snoop filter. (Count)
system.membus.snoop_filter.hitSingleRequests       119538                       # Number of requests hitting in the snoop filter with a single holder of the requested data. (Count)
system.membus.snoop_filter.hitMultiRequests            0                       # Number of requests hitting in the snoop filter with multiple (>1) holders of the requested data. (Count)
system.membus.snoop_filter.totSnoops                0                       # Total number of snoops made to the snoop filter. (Count)
system.membus.snoop_filter.hitSingleSnoops            0                       # Number of snoops hitting in the snoop filter with a single holder of the requested data. (Count)
system.membus.snoop_filter.hitMultiSnoops            0                       # Number of snoops hitting in the snoop filter with multiple (>1) holders of the requested data. (Count)
system.workload.inst.arm                            0                       # number of arm instructions executed (Count)
system.workload.inst.quiesce                        0                       # number of quiesce instructions executed (Count)

---------- End Simulation Statistics   ----------
